# ORCA input file
# SCF done       -205.088171256840          0.000476208012
! CAM-B3LYP def2-SVP def2/J RIJCOSX Grid4 TightSCF
%maxcore 5000
%tddft
    Mode sTDDFT
    Ethresh 5.0
    maxcore 5000
end

%pal
  nprocs 6
  end
* xyz 0 1
   C       -2.57390        -3.30851         3.48360
   C       -3.43287        -4.04999         4.28138
   F       -4.46394        -3.43387         4.86677
   C       -3.24838        -5.41859         4.48618
   F       -4.10251        -6.09220         5.26332
   C       -2.18951        -6.08416         3.89035
   C       -1.33608        -5.34480         3.09518
   C       -1.51147        -3.96669         2.88315
   C       -0.44970        -3.48389         1.99907
   C       -0.29287        -2.18619         1.59187
   C       -1.14853        -1.12851         1.97192
   N       -1.80358        -0.22589         2.24070
   C        0.72984        -1.70307         0.74693
   N        1.52572        -1.22902         0.06856
   C        0.38117        -4.62554         1.65774
   C       -0.14936        -5.80855         2.35030
   O        0.28669        -6.94253         2.32319
   C        1.46102        -4.61384         0.81529
   C        2.30741        -5.66190         0.40925
   S        2.25349        -7.33594         0.90061
   C        3.59146        -7.73335        -0.12245
   C        4.06459        -6.59832        -0.81062
   C        3.34276        -5.45083        -0.50072
   C        5.15310        -6.57518        -1.69992
   N        6.03801        -6.52078        -2.42879
   C        4.03199        -9.07554        -0.17352
   C        4.96167        -9.56232        -1.04197
   C        5.34533       -10.92226        -1.06920
   N        6.23655       -11.44087        -1.98009
   C        6.96665       -10.70708        -2.98748
   C        8.14160        -9.93415        -2.39502
   C        6.41310       -12.82336        -1.81476
   O        7.13950       -13.49981        -2.51580
   C        5.55429       -13.16392        -0.69966
   C        4.91649       -11.98012        -0.26405
   C        4.06028       -12.32117         0.85400
   O        3.32560       -11.64728         1.54771
   N        4.24660       -13.70192         1.02571
   C        3.51561       -14.43834         2.03047
   C        2.29658       -15.14248         1.44125
   C        5.12088       -14.22290         0.10237
   C        5.45548       -15.59573         0.03552
   C        6.28258       -16.09986        -0.91949
   C        6.59646       -17.47447        -1.04278
   S        7.61638       -17.98775        -2.36674
   C        6.22324       -18.58725        -0.30396
   C        5.44937       -18.87282         0.91520
   O        4.84310       -18.13347         1.65511
   N        5.52883       -20.24782         1.07810
   C        4.94813       -20.95368         2.20179
   C        6.00167       -21.25791         3.26057
   C        6.25061       -20.88743         0.08670
   O        6.39092       -22.08701         0.01826
   C        6.72548       -19.80960        -0.80101
   C        7.51853       -19.67837        -1.92879
   C        8.23844       -20.63614        -2.68803
   C        8.21254       -21.96479        -2.41836
   C        8.96269       -22.93531        -3.12395
   C        9.12690       -24.22488        -2.71902
   C        9.56212       -25.28193        -3.66891
   O       10.07227       -25.12665        -4.75200
   C        9.16986       -26.55518        -3.02058
   C        8.66016       -26.29488        -1.73484
   C        8.19673       -27.33637        -0.94679
   C        8.25648       -28.62062        -1.46641
   C        8.77307       -28.87279        -2.73894
   C        9.23696       -27.83644        -3.53288
   F        8.81600       -30.12869        -3.19701
   F        7.80466       -29.64006        -0.72953
   C        8.76344       -24.86077        -1.46666
   C        8.73511       -24.27670        -0.23075
   C        9.15084       -22.95337         0.04132
   N        9.54852       -21.92100         0.34502
   C        8.38652       -24.95828         0.95534
   N        8.09373       -25.45699         1.94599
   H       -2.76293        -2.25510         3.35890
   H       -2.04166        -7.14120         4.04418
   H        1.72153        -3.66374         0.36479
   H        3.55588        -4.48396        -0.92379
   H        3.56089        -9.75076         0.53021
   H        5.41962        -8.90269        -1.76269
   H        6.28759       -10.03159        -3.51476
   H        7.33771       -11.45628        -3.69244
   H        7.80137        -9.18655        -1.68252
   H        8.68203        -9.42974        -3.19053
   H        8.82051       -10.61645        -1.88919
   H        3.19242       -13.70120         2.77057
   H        4.17934       -15.16080         2.51082
   H        1.63298       -14.41700         0.97659
   H        1.75560       -15.65460         2.23149
   H        2.59526       -15.87474         0.69501
   H        5.02173       -16.25851         0.76947
   H        6.72577       -15.43931        -1.65400
   H        4.51385       -21.88283         1.82430
   H        4.16173       -20.31454         2.60924
   H        6.78874       -21.87965         2.83995
   H        5.54479       -21.78917         4.09029
   H        6.44202       -20.33596         3.63335
   H        8.86473       -20.24989        -3.48155
   H        7.57094       -22.31587        -1.62393
   H        9.38479       -22.67052        -4.08687
   H        7.78582       -27.18759         0.03858
   H        9.63450       -28.02991        -4.51646
*
