# ORCA input file
# SCF done       -209.643415851580          0.000982893871
! CAM-B3LYP def2-SVP def2/J RIJCOSX Grid4 TightSCF
%maxcore 5000
%tddft
    Mode sTDDFT
    Ethresh 5.0
    maxcore 5000
end

%pal
  nprocs 6
  end
* xyz 0 1
   C       -2.27801        -1.11590         1.97531
   C       -3.33931        -1.81364         2.49247
   C       -3.31420        -3.19831         2.76346
   N       -3.36421        -4.31691         3.01766
   C       -4.61363        -1.29164         2.79906
   N       -5.68469        -0.96166         3.05285
   C       -1.00275        -1.70698         1.58713
   C       -0.21989        -0.70544         0.94917
   C        1.02882        -0.96172         0.46137
   C        1.56785        -2.25994         0.60037
   C        0.79588        -3.26741         1.24757
   C       -0.49729        -2.97162         1.73706
   C        1.34604        -4.55790         1.38740
   C        2.59674        -4.84146         0.91018
   C        3.35500        -3.84886         0.27159
   C        2.85134        -2.58547         0.11987
   C       -0.96251         0.56554         0.92891
   O       -0.57888         1.59761         0.41725
   C       -2.22909         0.30441         1.65662
   C       -3.16978         1.20210         2.08126
   C       -3.28690         2.59521         1.89192
   S       -4.58344         3.40324         2.76001
   C       -4.14445         4.95112         2.12802
   C       -3.04757         4.82419         1.26184
   C       -2.57994         3.51069         1.13642
   C       -2.43703         5.87395         0.55382
   N       -1.90656         6.69495        -0.04839
   C       -4.86733         6.10029         2.54450
   C       -4.56035         7.37045         2.19270
   C       -5.21488         8.57130         2.62802
   C       -6.34258         8.59786         3.45064
   C       -6.89940         9.78760         3.89472
   C       -6.36240        11.02624         3.46732
   C       -5.23545        10.99199         2.63141
   C       -4.67710         9.80780         2.22941
   N       -6.91740        12.24162         3.80604
   C       -8.29412        12.41007         4.01464
   C       -9.22304        11.76148         3.20268
   C      -10.57654        11.90618         3.44436
   C      -11.02009        12.70575         4.48459
   C      -10.10081        13.38274         5.27015
   C       -8.74634        13.24236         5.03819
   C       -6.10155        13.39036         3.88755
   C       -6.53385        14.58693         3.32254
   C       -5.74264        15.71706         3.41016
   C       -4.51819        15.66370         4.05516
   C       -4.08975        14.47320         4.62051
   C       -4.87395        13.33829         4.54160
   C       -8.00930         9.73107         4.83198
   S       -9.46407         8.83201         4.47402
   C       -8.13976        10.35211         6.04410
   C       -7.33374        11.22684         6.91036
   O       -6.20459        11.62946         6.77976
   N       -8.16780        11.52938         7.98047
   C       -7.75692        12.36358         9.08938
   C       -7.19423        11.52690        10.23287
   C       -9.42310        10.93095         7.91018
   O      -10.30511        11.07675         8.71825
   C       -9.39362        10.15139         6.66475
   C      -10.26590         9.37512         5.93969
   C      -11.62524         9.10626         6.23460
   C      -12.52086         8.64985         5.32493
   C      -13.89339         8.49181         5.63842
   C      -14.87495         8.26834         4.71872
   C      -16.29556         8.11067         4.98183
   C      -16.88788         7.93878         6.20516
   C      -18.27706         7.77866         6.39492
   N      -19.39572         7.64915         6.61768
   C      -16.20990         7.86798         7.44072
   N      -15.73394         7.78279         8.48207
   C      -16.98819         8.11846         3.69871
   C      -16.01940         8.19721         2.65754
   C      -14.67087         8.26771         3.24334
   O      -13.62159         8.34416         2.63889
   C      -16.37638         8.22307         1.33990
   C      -17.74553         8.17839         0.99563
   C      -18.72167         8.10630         2.03131
   C      -18.32166         8.07458         3.38669
   C      -20.08590         8.07165         1.67726
   C      -20.46931         8.10723         0.36427
   C      -19.50734         8.17742        -0.65462
   C      -18.17454         8.21116        -0.34580
   H        1.59844        -0.18185        -0.02202
   H       -1.05249        -3.75663         2.22497
   H        0.75815        -5.31946         1.87850
   H        3.00892        -5.83316         1.02197
   H        4.34005        -4.09011        -0.09912
   H        3.43022        -1.81646        -0.37052
   H       -3.96200         0.79881         2.70150
   H       -1.74456         3.23702         0.51722
   H       -5.69548         5.89943         3.21017
   H       -3.71661         7.53044         1.53632
   H       -6.78853         7.67526         3.79032
   H       -4.81821        11.92611         2.28739
   H       -3.81325         9.81869         1.58163
   H       -8.87719        11.14265         2.38701
   H      -11.28704        11.38894         2.81713
   H      -12.07681        12.80678         4.67786
   H      -10.44092        14.01633         6.07545
   H       -8.02638        13.76347         5.65186
   H       -7.48700        14.62411         2.81514
   H       -6.08254        16.64104         2.96665
   H       -3.90200        16.54755         4.11995
   H       -3.14143        14.42920         5.13447
   H       -4.55894        12.41573         5.00293
   H       -8.63539        12.92066         9.42427
   H       -6.99870        13.05406         8.71199
   H       -7.95035        10.83619        10.59861
   H       -6.88982        12.17616        11.04871
   H       -6.32969        10.96031         9.89441
   H      -11.94094         9.37339         7.23616
   H      -12.20039         8.44113         4.31359
   H      -14.16222         8.59776         6.68195
   H      -15.62185         8.28146         0.56940
   H      -19.08534         8.02412         4.14633
   H      -20.82266         8.01665         2.46517
   H      -21.51663         8.08174         0.10327
   H      -19.82784         8.20514        -1.68530
   H      -17.42938         8.26531        -1.12599
*
