# ORCA input file
# SCF done       -229.215333296515          0.000525771596
! CAM-B3LYP def2-SVP def2/J RIJCOSX Grid4 TightSCF
%maxcore 5000
%tddft
    Mode sTDDFT
    Ethresh 5.0
    maxcore 5000
end

%pal
  nprocs 6
  end
* xyz 0 1
   C        0.57416         2.30143        -7.86134
   C       -0.44450         3.20945        -7.79512
   C       -1.51221         3.25718        -8.71608
   N       -2.39544         3.33854        -9.44360
   C       -0.57755         4.13723        -6.74123
   N       -0.74592         4.86124        -5.86640
   C        0.67458         1.16175        -8.75788
   C        1.63140         0.24285        -8.22971
   C        1.91757        -0.93410        -8.86133
   C        1.25649        -1.24589       -10.06993
   C        0.31074        -0.32491       -10.60915
   C        0.02934         0.88344        -9.93296
   C       -0.33240        -0.64530       -11.82224
   C       -0.05821        -1.81777       -12.47198
   C        0.87121        -2.72424       -11.93960
   C        1.51380        -2.44476       -10.76425
   C        2.21548         0.79353        -6.99856
   O        2.99857         0.28634        -6.23126
   C        1.67276         2.18535        -6.91460
   C        2.31649         3.12355        -6.19382
   C        2.19351         4.55433        -6.27491
   C        2.33358         5.34471        -7.39576
   N        2.54073         4.95294        -8.73250
   O        2.88211         5.81690        -9.51844
   O        2.37295         3.78072        -9.03964
   C        2.39611         6.73765        -7.00042
   C        2.23970         6.81249        -5.66356
   C        2.04308         5.48113        -5.13666
   C        1.65840         5.11484        -3.86992
   C        1.62446         3.78329        -3.33725
   C        1.46978         3.85561        -1.99274
   C        1.34786         5.23431        -1.59906
   N        1.12484         5.54075        -0.24388
   O        0.73206         4.63344         0.46753
   O        1.35461         6.66865         0.16938
   C        1.36763         6.03867        -2.74088
   C        0.95287         7.37122        -2.95183
   C        0.92946         8.38031        -2.02735
   C        0.42407         9.66400        -2.30619
   N        0.36761        10.66589        -1.36614
   C        0.82649        10.58561         0.00244
   C        2.33711        10.77732         0.10212
   C       -0.17196        11.84843        -1.88451
   O       -0.32060        12.86860        -1.24188
   C       -0.47346        11.52946        -3.26825
   C       -0.10051        10.19144        -3.49732
   C       -0.37539         9.88439        -4.88843
   O       -0.18633         8.88710        -5.55085
   N       -0.92308        11.07417        -5.40577
   C       -1.38170        11.15288        -6.77381
   C       -2.89724        11.00720        -6.87565
   C       -0.99057        12.06106        -4.45814
   C       -1.48696        13.36120        -4.71028
   C       -1.48968        14.33194        -3.75670
   C       -1.95668        15.65723        -3.93451
   S       -1.73403        16.79797        -2.64763
   C       -2.52103        18.06832        -3.52970
   C       -2.91074        17.62559        -4.77684
   C       -2.59661        16.26740        -5.01565
   C       -2.92481        15.62172        -6.22157
   N       -3.19724        15.10141        -7.20661
   C       -3.48127        18.45371        -5.88994
   F       -3.60440        19.75644        -5.60010
   F       -2.67048        18.40298        -6.96767
   F       -4.67757        18.03042        -6.30264
   C       -2.63565        19.36146        -2.90994
   C       -3.77190        20.08898        -2.85299
   C       -3.95117        21.43275        -2.32129
   C       -2.95395        22.30169        -1.97338
   C       -3.17631        23.61355        -1.50041
   N       -3.29261        24.68466        -1.10619
   C       -1.57412        22.01456        -2.05012
   N       -0.44030        21.84156        -2.08962
   C       -5.38010        21.70772        -2.29887
   C       -6.07805        20.58632        -2.83679
   C       -5.12015        19.54161        -3.21107
   O       -5.35358        18.43536        -3.64200
   C       -7.43992        20.56725        -2.94510
   C       -8.18048        21.68926        -2.51337
   C       -7.49138        22.81210        -1.96749
   C       -6.08207        22.80338        -1.86700
   C       -8.24183        23.92407        -1.53341
   C       -9.60647        23.92929        -1.63432
   C      -10.28340        22.82453        -2.17322
   C       -9.58589        21.72859        -2.60405
   H        2.64377        -1.61759        -8.44681
   H       -0.67803         1.57203       -10.36804
   H       -1.04790         0.05482       -12.22743
   H       -0.55571        -2.05366       -13.40067
   H        1.07620        -3.64420       -12.46629
   H        2.23103        -3.13841       -10.35049
   H        3.10406         2.75933        -5.53828
   H        2.55188         7.53782        -7.69747
   H        2.27427         7.70926        -5.08149
   H        1.73901         2.88278        -3.90471
   H        1.43444         3.04265        -1.29186
   H        0.58534         7.58273        -3.94758
   H        1.32020         8.20595        -1.03728
   H        0.53151         9.62537         0.43111
   H        0.31772        11.38917         0.54148
   H        2.86481        10.00169        -0.44741
   H        2.64057        10.73056         1.14361
   H        2.61996        11.74710        -0.30057
   H       -0.89764        10.32639        -7.30124
   H       -1.05353        12.09702        -7.21581
   H       -3.20962        10.05171        -6.46138
   H       -3.19513        11.04798        -7.91900
   H       -3.40592        11.80546        -6.34041
   H       -1.85710        13.57245        -5.70106
   H       -1.09574        14.10571        -2.77301
   H       -1.73820        19.71152        -2.41551
   H       -7.94302        19.70635        -3.35944
   H       -5.59075        23.66567        -1.44493
   H       -7.71647        24.77275        -1.12097
   H      -10.17235        24.78554        -1.29968
   H      -11.36033        22.84631        -2.24491
   H      -10.10134        20.87549        -3.01979
*
