# ORCA input file
# SCF done       -214.117266207744          0.000724958561
! CAM-B3LYP def2-SVP def2/J RIJCOSX Grid4 TightSCF
%maxcore 5000
%tddft
    Mode sTDDFT
    Ethresh 5.0
    maxcore 5000
end

%pal
  nprocs 6
  end
* xyz 0 1
   C        7.20426         5.49721        -6.58176
   C        6.37173         4.41138        -6.60296
   C        6.56762         3.29030        -7.43595
   N        6.68221         2.35856        -8.09585
   C        5.27280         4.26008        -5.73365
   N        4.39888         4.07778        -5.01098
   C        8.48143         5.61578        -7.26948
   C        9.23998         6.65451        -6.65133
   C       10.50073         6.96827        -7.07192
   C       11.06593         6.25104        -8.14997
   C       10.30593         5.22416        -8.78232
   C        9.00403         4.91797        -8.32467
   C       10.88020         4.52212        -9.86160
   C       12.14448         4.81551       -10.29491
   C       12.89227         5.82541        -9.67092
   C       12.36450         6.52765        -8.62167
   C        8.44280         7.27093        -5.57917
   O        8.76591         8.13207        -4.79415
   C        7.09512         6.63758        -5.69121
   C        6.02469         7.22099        -5.10446
   C        4.63346         6.99686        -5.33260
   C        3.92611         6.91127        -6.52237
   N        4.40594         6.99274        -7.83792
   O        3.58171         7.11401        -8.72937
   O        5.61375         6.95113        -8.03585
   C        2.51230         6.86420        -6.23514
   C        2.33644         6.96534        -4.89761
   C        3.62532         7.06196        -4.26721
   C        3.91101         7.09133        -2.91785
   C        5.10083         6.60275        -2.30537
   C        4.92203         6.59874        -0.95463
   C        3.63956         7.15277        -0.63872
   N        3.25052         7.27864         0.70416
   O        2.08379         7.52719         0.97777
   O        4.11294         7.11164         1.54995
   C        2.99383         7.51502        -1.83192
   C        1.89664         8.33795        -2.12993
   C        0.94938         8.84474        -1.27318
   C       -0.06465         9.70511        -1.72292
   N       -1.03343        10.23407        -0.90887
   C       -1.19214         9.98746         0.50623
   C       -1.85110         8.63836         0.77771
   C       -1.93720        11.05569        -1.61159
   O       -2.84706        11.65934        -1.09444
   C       -1.46803        10.99013        -2.98559
   C       -0.31583        10.18831        -3.02378
   C        0.14820        10.16273        -4.39362
   O        1.09375         9.61841        -4.92876
   N       -0.77529        10.96080        -5.10058
   C       -0.65949        11.05510        -6.53662
   C        0.33626        12.13285        -6.95800
   C       -1.74308        11.47212        -4.27224
   C       -2.84881        12.30481        -4.58330
   C       -2.97082        13.12138        -5.65784
   C       -4.04193        14.04209        -5.92870
   C       -5.26243        14.10233        -5.22753
   C       -5.97850        13.10793        -4.38379
   O       -5.68414        11.97755        -4.11156
   O       -7.14634        13.65640        -3.98459
   C       -7.31525        14.96198        -4.49880
   C       -6.10906        15.19869        -5.34623
   C       -5.80133        16.27833        -6.15526
   C       -4.66486        16.18550        -6.93378
   C       -3.82026        15.07280        -6.88395
   C       -2.74156        15.02183        -7.85791
   C       -2.43465        13.93062        -8.58072
   C       -1.38924        13.85595        -9.55047
   S       -0.28761        15.18531        -9.80900
   C        0.56839        14.28827       -10.99138
   C        0.05375        13.03902       -11.18449
   C       -1.07037        12.78315       -10.35692
   C       -1.83134        11.49618       -10.43131
   C       -1.01303        10.40318       -11.11843
   C       -0.39531        10.91120       -12.43031
   C       -1.52531        11.32094       -13.37363
   O       -2.16969        10.51482       -13.98039
   O       -1.78905        12.63130       -13.48166
   C        0.62014        12.01515       -12.12459
   H       11.06108         7.75521        -6.58903
   H        8.44321         4.14655        -8.82861
   H       10.30149         3.74412       -10.33723
   H       12.57617         4.27050       -11.12098
   H       13.88828         6.04411       -10.02601
   H       12.93562         7.30644        -8.13764
   H        6.26159         7.99990        -4.38350
   H        1.76261         6.75719        -6.99486
   H        1.40629         6.87418        -4.37389
   H        5.93667         6.18725        -2.83303
   H        5.60446         6.23741        -0.20806
   H        1.82204         8.62629        -3.16946
   H        0.96180         8.57130        -0.22975
   H       -1.83043        10.79219         0.88127
   H       -0.21844        10.04444         0.99855
   H       -2.81726         8.58690         0.28138
   H       -2.00145         8.51800         1.84642
   H       -1.22749         7.82155         0.42344
   H       -1.65076        11.22774        -6.95849
   H       -0.28820        10.08524        -6.88389
   H        0.04716        13.11344        -6.58545
   H        0.39858        12.17391        -8.04174
   H        1.31923        11.89006        -6.56300
   H       -3.61957        12.27215        -3.82736
   H       -2.12636        13.22560        -6.32030
   H       -7.38875        15.67055        -3.66543
   H       -8.24991        14.99809        -5.06919
   H       -6.44509        17.14208        -6.20396
   H       -4.42926        16.97769        -7.62890
   H       -2.22543        15.95180        -8.06015
   H       -3.01756        13.02728        -8.45459
   H        1.41463        14.73081       -11.47871
   H       -2.75764        11.66576       -10.99139
   H       -2.11697        11.16134        -9.43212
   H       -1.65493         9.54748       -11.32835
   H       -0.20739        10.07318       -10.45931
   H        0.11316        10.07336       -12.91637
   H       -1.22456        13.17125       -12.90767
   H        0.97605        12.48936       -13.04376
   H        1.49228        11.55312       -11.65113
*
