# ORCA input file
# SCF done       -232.660337584495          0.000548693877
! CAM-B3LYP def2-SVP def2/J RIJCOSX Grid4 TightSCF
%maxcore 5000
%tddft
    Mode sTDDFT
    Ethresh 5.0
    maxcore 5000
end

%pal
  nprocs 6
  end
* xyz 0 1
   C        3.24644         7.55684         1.05940
   C        2.10641         8.27579         0.82092
   C        1.38360         8.24058        -0.38717
   N        0.75888         8.28151        -1.35015
   C        1.52316         9.13511         1.77321
   N        1.00990         9.85873         2.50193
   C        3.85342         6.58099         0.17170
   C        4.71582         5.74418         0.94038
   C        5.46392         4.76571         0.35080
   C        5.40017         4.59980        -1.05159
   C        4.54967         5.44521        -1.82460
   C        3.76411         6.43015        -1.18579
   C        4.52517         5.29160        -3.22492
   C        5.30132         4.34539        -3.83677
   C        6.12960         3.50695        -3.07638
   C        6.17651         3.62910        -1.71367
   C        4.69105         6.17325         2.35174
   O        5.21707         5.65925         3.30626
   C        3.96100         7.48192         2.31966
   C        4.20569         8.44308         3.25030
   C        4.07689         9.84053         3.03190
   C        3.66318        10.83575         3.90001
   N        3.31299        10.66803         5.25569
   O        3.01537        11.66518         5.88367
   O        3.35370         9.54155         5.71652
   C        3.56821        12.07831         3.18955
   C        3.88052        11.85744         1.88019
   C        4.26079        10.49006         1.72384
   C        4.87056         9.87439         0.63823
   C        5.93973         8.93799         0.74410
   C        6.36741         8.60047        -0.50793
   C        5.54229         9.25523        -1.46720
   N        5.63896         8.98349        -2.83941
   O        6.41263         8.10147        -3.17713
   O        4.94421         9.61496        -3.62186
   C        4.60463        10.06342        -0.80121
   C        3.48481        10.66177        -1.39443
   C        2.36182        11.10816        -0.74480
   C        1.20215        11.54792        -1.39215
   C       -0.01748        11.81333        -0.77072
   C       -1.01882        12.15427        -1.66494
   C       -0.55621        12.19678        -3.00396
   S        1.10359        11.75965        -3.12565
   C       -1.43285        12.63349        -4.00171
   C       -2.77962        12.86147        -3.67260
   C       -3.27766        12.53303        -2.30145
   O       -2.26462        12.47094        -1.30162
   C       -3.51791        13.34855        -4.73065
   C       -2.77713        13.50122        -5.90399
   S       -1.10243        13.01824        -5.64687
   C       -3.15345        14.04976        -7.14668
   C       -4.09264        15.03949        -7.45738
   N       -5.11431        15.61667        -6.68369
   O       -5.54482        15.01484        -5.71136
   O       -5.53418        16.70032        -7.04835
   C       -3.82949        15.53094        -8.77762
   C       -2.76117        14.87237        -9.30410
   C       -2.33596        13.88267        -8.36853
   C       -1.51679        12.80886        -8.65600
   C       -1.65075        11.47653        -8.14834
   C       -0.85606        10.65603        -8.88364
   C       -0.14015        11.43460        -9.85705
   N        0.78214        10.79937       -10.71667
   O        1.17854         9.70039       -10.37714
   O        1.10749        11.35268       -11.75255
   C       -0.50131        12.77453        -9.73187
   C        0.05076        13.98920       -10.20604
   C        0.85760        14.19247       -11.28839
   C        1.40796        15.42953       -11.71196
   C        1.18704        16.73055       -11.34081
   C        1.84391        17.85308       -12.00614
   C        3.01320        17.81194       -12.71754
   C        3.60274        18.94492       -13.31970
   N        4.12556        19.82588       -13.83684
   C        3.83068        16.67508       -12.90451
   N        4.57304        15.81675       -13.07728
   C        1.08742        19.06145       -11.70654
   C        0.09279        18.73444       -10.74296
   C        0.17835        17.30726       -10.40742
   O       -0.44915        16.75475        -9.52528
   C       -0.77154        19.66899       -10.24696
   C       -0.68386        20.99928       -10.71176
   C        0.30303        21.33390       -11.68474
   C        1.18791        20.34524       -12.17358
   C        0.37900        22.66451       -12.14369
   C       -0.47613        23.61985       -11.66503
   C       -1.44674        23.28932       -10.70727
   C       -1.54869        22.00688       -10.24053
   H        6.11083         4.13562         0.94284
   H        3.13136         7.06717        -1.78609
   H        3.88751         5.94022        -3.80664
   H        5.28343         4.24154        -4.91069
   H        6.73582         2.76623        -3.57566
   H        6.81683         2.98894        -1.12470
   H        4.59161         8.11892         4.21210
   H        3.28773        13.00632         3.64987
   H        3.96536        12.59906         1.10868
   H        6.39773         8.64475         1.66911
   H        7.18386         7.95271        -0.76530
   H        3.47904        10.66647        -2.47898
   H        2.29564        11.06635         0.33273
   H       -0.16401        11.73245         0.29053
   H       -3.79308        11.55862        -2.32511
   H       -3.99315        13.28492        -1.95564
   H       -4.56493        13.58410        -4.68073
   H       -4.42174        16.29454        -9.24565
   H       -2.38528        14.97486       -10.30207
   H       -2.36492        11.17081        -7.40834
   H       -0.75766         9.59023        -8.79867
   H       -0.21710        14.85230        -9.61182
   H        1.12781        13.34776       -11.90723
   H        2.10690        15.30780       -12.53235
   H       -1.51390        19.39455        -9.51208
   H        1.91916        20.63021       -12.91294
   H        1.12854        22.91517       -12.87976
   H       -0.40902        24.63641       -12.02215
   H       -2.11320        24.05577       -10.34140
   H       -2.29371        21.74602        -9.50335
*
