# ORCA input file
# SCF done       -197.039262600448          0.000939169186
! CAM-B3LYP def2-SVP def2/J RIJCOSX Grid4 TightSCF
%maxcore 5000
%tddft
    Mode sTDDFT
    Ethresh 5.0
    maxcore 5000
end

%pal
  nprocs 6
  end
* xyz 0 1
   C       -2.50883         1.61798        -4.09992
   C       -1.47992         2.48084        -4.36951
   C       -1.14738         2.92142        -5.66662
   N       -0.85415         3.32724        -6.69927
   C       -0.58962         2.95937        -3.38541
   N        0.17532         3.33879        -2.61811
   C       -3.27077         0.86935        -5.09067
   C       -3.84045        -0.27294        -4.45379
   C       -4.57275        -1.18985        -5.15184
   C       -4.77970        -0.99728        -6.53644
   C       -4.22719         0.15180        -7.17409
   C       -3.46771         1.08202        -6.42853
   C       -4.44666         0.33415        -8.55468
   C       -5.17294        -0.57539        -9.27401
   C       -5.71481        -1.70714        -8.64621
   C       -5.52237        -1.91364        -7.30704
   C       -3.51229        -0.25074        -3.01669
   O       -3.77583        -1.07384        -2.17468
   C       -2.83622         1.06680        -2.79871
   C       -2.74107         1.58310        -1.54899
   C       -2.52870         2.93396        -1.16759
   S       -2.96409         4.31358        -2.15874
   C       -2.43786         5.47671        -0.95663
   C       -1.96307         4.79846         0.15057
   C       -2.04052         3.39543         0.03340
   C       -1.49140         2.78148         1.25853
   O       -1.39100         1.62695         1.57408
   N       -1.10425         3.87008         2.02713
   C       -1.33333         5.11360         1.44620
   O       -1.04538         6.16842         1.94528
   C       -2.54412         6.85364        -1.27121
   C       -2.30102         7.86301        -0.39581
   C       -2.37061         9.25820        -0.64790
   N       -2.37451         9.93018        -1.85422
   C       -2.14622         9.41632        -3.18556
   C       -0.74803         8.82904        -3.35013
   C       -2.45224        11.32370        -1.66983
   O       -2.46212        12.11934        -2.58973
   C       -2.52329        11.50312        -0.23927
   C       -2.46320        10.22156         0.35462
   C       -2.55914        10.38670         1.79262
   O       -2.59119         9.59937         2.70829
   N       -2.62707        11.78916         1.96841
   C       -2.77169        12.36746         3.28250
   C       -4.21808        12.75910         3.57427
   C       -2.61789        12.46051         0.77307
   C       -2.67351        13.87299         0.65285
   C       -2.69694        14.49245        -0.55362
   C       -2.74172        15.90435        -0.68941
   S       -2.81536        16.68052        -2.26359
   C       -2.82240        18.19462        -1.37154
   N       -2.77426        18.01083        -0.07760
   N       -2.73171        16.76919         0.29338
   C       -2.87369        19.45259        -2.03277
   C       -2.83389        20.62303        -1.35172
   C       -2.91190        21.93737        -1.88974
   C       -2.65615        22.41055        -3.14405
   C       -2.82456        23.80809        -3.52665
   C       -3.60799        24.73453        -2.89168
   C       -3.75145        26.07074        -3.32292
   N       -3.90348        27.16942        -3.61836
   C       -4.41962        24.48640        -1.76345
   N       -5.12808        24.36259        -0.86818
   C       -2.09802        24.02737        -4.76926
   C       -1.59409        22.77516        -5.22008
   C       -1.96729        21.71517        -4.26863
   O       -1.72693        20.53384        -4.39399
   C       -0.88745        22.65674        -6.38258
   C       -0.64325        23.81057        -7.15979
   C       -1.12939        25.07138        -6.70674
   C       -1.86018        25.16179        -5.50011
   C       -0.87362        26.21751        -7.48704
   C       -0.17732        26.12388        -8.66124
   C        0.29690        24.88147        -9.10848
   C        0.06973        23.74965        -8.37345
   H       -4.98903        -2.05316        -4.65432
   H       -3.06697         1.94852        -6.93147
   H       -4.02432         1.20506        -9.03403
   H       -5.33347        -0.42815       -10.33146
   H       -6.28552        -2.41442        -9.22905
   H       -5.93704        -2.78330        -6.81876
   H       -2.90211         0.89211        -0.72636
   H       -0.67314         3.77186         2.93558
   H       -2.87154         7.05590        -2.27970
   H       -2.05472         7.62132         0.63131
   H       -2.25882        10.28184        -3.84664
   H       -2.91822         8.68933        -3.45109
   H       -0.00008         9.58928        -3.13861
   H       -0.61457         8.48700        -4.37268
   H       -0.58641         7.98974        -2.67816
   H       -2.10848        13.23130         3.37722
   H       -2.45155        11.59508         3.98747
   H       -4.57187        13.50283         2.86380
   H       -4.29167        13.17067         4.57691
   H       -4.85959        11.88354         3.51030
   H       -2.69344        14.47579         1.54879
   H       -2.68163        13.91608        -1.46855
   H       -2.94521        19.42556        -3.10824
   H       -2.79999        20.56285        -0.27120
   H       -3.18798        22.68265        -1.15163
   H       -0.52152        21.69343        -6.70568
   H       -2.21028        26.13081        -5.18186
   H       -1.24267        27.17135        -7.13981
   H        0.01136        27.00708        -9.25290
   H        0.84310        24.82590       -10.03823
   H        0.43290        22.79050        -8.71241
*
