# ORCA input file
# SCF done       -258.299917910242          0.000591706591
! CAM-B3LYP def2-SVP def2/J RIJCOSX Grid4 TightSCF
%maxcore 5000
%tddft
    Mode sTDDFT
    Ethresh 5.0
    maxcore 5000
end

%pal
  nprocs 6
  end
* xyz 0 1
   C       -5.26336         0.38588         2.15343
   C       -5.80508         0.16832         3.38922
   F       -5.92983         1.17871         4.25695
   C       -6.23820        -1.11970         3.76625
   F       -6.76325        -1.30374         4.98350
   C       -6.12406        -2.17191         2.90151
   C       -5.56902        -1.98015         1.62108
   C       -5.13086        -0.67830         1.23878
   C       -4.56993        -0.46284        -0.04015
   C       -4.44959        -1.51645        -0.90796
   C       -4.88285        -2.81631        -0.51656
   C       -5.43165        -3.05216         0.71212
   C       -4.61117        -3.77590        -1.60096
   O       -4.83234        -4.96744        -1.60492
   C       -3.93249        -2.98407        -2.66262
   C       -3.92577        -1.58696        -2.26571
   C       -3.58607        -0.53247        -3.06588
   C       -3.23299        -0.67294        -4.42607
   N       -2.98846        -0.73837        -5.54508
   C       -3.61249         0.81596        -2.65021
   N       -3.61597         1.92482        -2.35646
   C       -3.27305        -3.56077        -3.69568
   C       -3.38465        -4.95229        -4.01300
   C       -2.35173        -5.86551        -4.03710
   N       -1.00731        -5.55779        -3.76386
   O       -0.18279        -6.44163        -3.89088
   O       -0.75423        -4.41364        -3.41575
   C       -2.87609        -7.18464        -4.27999
   C       -4.22689        -7.09198        -4.36521
   C       -4.61564        -5.71151        -4.23182
   C       -5.86385        -5.15776        -4.41637
   C       -6.15304        -3.82564        -4.84875
   C       -7.48899        -3.72515        -5.07798
   C       -8.11959        -4.97790        -4.75499
   N       -9.52174        -5.08908        -4.69548
   O      -10.16874        -4.12699        -5.07076
   O      -10.01739        -6.10842        -4.24299
   C       -7.14694        -5.88252        -4.33923
   C       -7.24835        -7.18136        -3.78971
   C       -8.15587        -8.12973        -4.16135
   C       -8.31884        -9.43005        -3.64012
   N       -7.88713        -9.97236        -2.45256
   C       -7.26293        -9.30299        -1.33274
   C       -8.17963        -8.25764        -0.70607
   C       -8.28471       -11.32166        -2.31819
   O       -8.03736       -12.00908        -1.35268
   C       -8.99067       -11.60870        -3.54932
   C       -9.00432       -10.44436        -4.32734
   C       -9.66334       -10.75747        -5.57991
   O       -9.89199       -10.10256        -6.56820
   N      -10.03259       -12.12539        -5.44913
   C      -10.64140       -12.80723        -6.56658
   C       -9.63741       -13.68591        -7.30964
   C       -9.62749       -12.64109        -4.25015
   C       -9.72169       -13.94893        -3.71398
   C      -10.30176       -15.06405        -4.22178
   C      -10.20534       -16.34630        -3.60486
   S      -11.46686       -17.49864        -3.89039
   C      -10.74479       -18.64093        -2.81050
   C       -9.53664       -18.17767        -2.32725
   C       -9.22143       -16.88013        -2.78972
   C       -7.88213       -16.25053        -2.55277
   N       -7.37482       -15.59577        -3.79449
   O       -6.70393       -14.60700        -3.65556
   O       -7.62417       -16.13200        -4.84588
   C       -6.84496       -17.32329        -2.19912
   C       -7.37153       -18.16908        -1.05100
   C       -8.57782       -18.99573        -1.50307
   N       -9.24973       -19.49653        -0.27975
   O       -9.61104       -18.67796         0.53006
   O       -9.41048       -20.68983        -0.17414
   C      -11.42024       -19.90791        -2.65803
   C      -11.93827       -20.52654        -1.58101
   C      -12.37765       -21.95463        -1.74695
   O      -12.49916       -22.53508        -2.79743
   C      -12.56641       -22.46486        -0.38299
   C      -12.84077       -23.74089         0.02174
   C      -12.93721       -24.01620         1.40276
   C      -12.73403       -22.96228         2.34182
   C      -12.81759       -23.24719         3.71999
   C      -13.09430       -24.51600         4.14535
   C      -13.29833       -25.55679         3.21549
   C      -13.22128       -25.31364         1.87293
   F      -13.56808       -26.78949         3.66166
   F      -13.17521       -24.78498         5.45346
   C      -12.45605       -21.65179         1.89405
   C      -12.38529       -21.40318         0.54850
   C      -12.12754       -20.16666        -0.18081
   C      -12.21975       -18.90752         0.34284
   C      -12.09974       -17.71266        -0.39730
   N      -12.02902       -16.71128        -0.95253
   C      -12.52529       -18.64153         1.69787
   N      -12.78593       -18.36994         2.78048
   H       -4.93797         1.37756         1.88049
   H       -6.45980        -3.15081         3.20594
   H       -4.23937         0.52992        -0.30048
   H       -5.75327        -4.04483         0.98829
   H       -2.55893        -2.98759        -4.27589
   H       -2.26416        -8.06221        -4.36438
   H       -4.90061        -7.88913        -4.61356
   H       -5.41489        -3.07309        -5.04902
   H       -8.03129        -2.86910        -5.43305
   H       -6.48531        -7.41407        -3.06154
   H       -8.80494        -7.93223        -5.00362
   H       -6.31033        -8.86216        -1.63646
   H       -7.05296       -10.09399        -0.60604
   H       -8.46210        -7.49545        -1.42788
   H       -7.66854        -7.77944         0.12450
   H       -9.08459        -8.73076        -0.33281
   H      -10.99722       -12.01776        -7.23545
   H      -11.50493       -13.38095        -6.22202
   H       -8.84166       -13.06868        -7.71881
   H      -10.13463       -14.19618        -8.12962
   H       -9.19060       -14.43005        -6.65420
   H       -9.24760       -14.00608        -2.74342
   H      -10.90673       -15.03115        -5.11384
   H       -7.90513       -15.48499        -1.76955
   H       -5.90788       -16.84469        -1.91242
   H       -6.66244       -17.95435        -3.07299
   H       -7.68264       -17.51678        -0.23100
   H       -6.58884       -18.83604        -0.68678
   H       -8.26850       -19.88623        -2.06338
   H      -11.55997       -20.45489        -3.58980
   H      -12.97681       -24.52874        -0.70334
   H      -12.66705       -22.46228         4.44458
   H      -13.37865       -26.12073         1.17469
   H      -12.28964       -20.87814         2.62602
*
