# ORCA input file
# SCF done       -167.288416907286          0.000386354243
! CAM-B3LYP def2-SVP def2/J RIJCOSX Grid4 TightSCF
%maxcore 5000
%tddft
    Mode sTDDFT
    Ethresh 5.0
    maxcore 5000
end

%pal
  nprocs 6
  end
* xyz 0 1
   C       -0.87945        -0.46964        -3.31165
   C       -1.62541         0.65203        -3.64723
   C       -2.59383         0.59309        -4.79548
   C       -3.81586        -0.24978        -4.42539
   C       -1.46041         1.81501        -2.89138
   C       -0.56226         1.83239        -1.82766
   C        0.16329         0.70271        -1.50390
   C        0.00531        -0.45246        -2.24977
   C       -2.20198         3.04237        -3.19731
   C       -3.45188         3.39063        -2.75627
   N       -4.32058         2.61654        -1.96324
   O       -5.38237         3.12228        -1.64182
   O       -3.96844         1.49547        -1.63964
   C       -3.79083         4.72184        -3.23064
   C       -2.73127         5.20877        -3.90549
   C       -1.67650         4.20965        -3.91019
   C       -0.43570         4.30148        -4.49572
   C        0.38654         3.20135        -4.91186
   C        1.36824         3.67075        -5.72584
   C        1.27273         5.10052        -5.79563
   N        2.22271         5.89503        -6.46159
   O        2.22109         7.09900        -6.26284
   O        3.00899         5.32223        -7.19696
   C        0.20194         5.53208        -5.01892
   C       -0.13217         6.86795        -4.72414
   C       -0.69105         7.28245        -3.54589
   C       -1.04945         8.62153        -3.30493
   N       -1.41390         9.11830        -2.07394
   C       -1.41855         8.39404        -0.82566
   C       -0.00771         8.18816        -0.28113
   C       -1.72487        10.48498        -2.12699
   O       -2.05886        11.13921        -1.15908
   C       -1.56280        10.83517        -3.52387
   C       -1.15108         9.68038        -4.21631
   C       -1.04986        10.01276        -5.62549
   O       -0.77252         9.34787        -6.59799
   N       -1.38299        11.38096        -5.68058
   C       -1.42504        12.08690        -6.94012
   C       -2.84659        12.18407        -7.48653
   C       -1.70198        11.88317        -4.44751
   C       -2.08733        13.22488        -4.22727
   C       -2.37775        13.70400        -2.98722
   C       -2.75865        15.03991        -2.71334
   S       -3.05823        15.47579        -1.04285
   C       -3.44288        17.12500        -1.43358
   C       -3.33149        17.31584        -2.79177
   C       -2.94664        16.15488        -3.51797
   C       -2.81467        16.47433        -4.93930
   O       -2.53362        15.73670        -5.85650
   C       -3.09917        17.96029        -5.07356
   C       -3.44037        18.47390        -3.68248
   O       -3.73474        19.60903        -3.40186
   C       -3.71662        18.06884        -0.35839
   C       -4.88677        18.83620        -0.29213
   C       -6.00992        18.66559        -1.27328
   C       -6.68456        17.30026        -1.12914
   C       -5.02759        19.72404         0.76639
   C       -4.05406        19.85812         1.73927
   C       -2.91259        19.07634         1.68344
   C       -2.75335        18.18126         0.64592
   H       -0.99624        -1.36922        -3.89829
   H       -2.10112         0.15013        -5.66533
   H       -2.91224         1.60220        -5.06709
   H       -3.53730        -1.29357        -4.30584
   H       -4.57505        -0.17977        -5.20079
   H       -4.23768         0.09268        -3.48405
   H       -0.44422         2.73885        -1.25135
   H        0.85159         0.72612        -0.67261
   H        0.57200        -1.33814        -2.00494
   H       -4.74380         5.18356        -3.05873
   H       -2.68371         6.13802        -4.43717
   H        0.18709         2.17337        -4.68652
   H        2.12078         3.10286        -6.23968
   H        0.16383         7.61172        -5.45560
   H       -0.82949         6.57030        -2.74395
   H       -1.92792         7.43563        -0.96298
   H       -1.99806         9.00292        -0.12625
   H        0.60224         7.61991        -0.97999
   H       -0.05298         7.65115         0.66209
   H        0.46862         9.15035        -0.11013
   H       -0.80347        11.51086        -7.63094
   H       -0.99401        13.08273        -6.81591
   H       -3.26633        11.18957        -7.61808
   H       -2.83117        12.68603        -8.44931
   H       -3.48401        12.74986        -6.81147
   H       -2.14316        13.88366        -5.08107
   H       -2.32290        13.04347        -2.13061
   H       -3.91829        18.14272        -5.77271
   H       -2.22813        18.48288        -5.47582
   H       -5.63999        18.79023        -2.28995
   H       -6.75196        19.44589        -1.09678
   H       -5.99151        16.49256        -1.35323
   H       -7.52766        17.22620        -1.81177
   H       -7.04963        17.16462        -0.11322
   H       -5.92525        20.32178         0.82821
   H       -4.19049        20.56306         2.54538
   H       -2.15117        19.16210         2.44343
   H       -1.86324        17.57091         0.58864
*
