# ORCA input file
# SCF done       -212.078631292655          0.000791034830
! CAM-B3LYP def2-SVP def2/J RIJCOSX Grid4 TightSCF
%maxcore 5000
%tddft
    Mode sTDDFT
    Ethresh 5.0
    maxcore 5000
end

%pal
  nprocs 6
  end
* xyz 0 1
   C       -2.79161         5.75564        -1.66949
   C       -3.77194         4.62496        -1.94614
   O       -4.84284         4.70254        -2.46544
   O       -3.25254         3.46587        -1.50132
   C       -1.92344         3.64175        -1.02511
   C       -1.84347         5.13353        -0.64640
   C       -0.43604         5.71607        -0.59546
   C        0.39458         5.37370        -1.82574
   C        0.42761         3.88601        -2.15593
   C       -0.94557         3.19191        -2.13552
   O       -0.64702         1.80992        -1.97216
   C        0.58466         1.61115        -1.49010
   O        1.04214         0.53383        -1.26678
   C        1.28373         2.96523        -1.26788
   C        1.25773         3.25286         0.19163
   C        2.34366         3.53100         0.91908
   C        2.25228         3.82930         2.31816
   S        3.65718         3.95334         3.35673
   C        2.50948         4.32002         4.64175
   N        1.27668         4.32434         4.21872
   N        1.13545         4.05728         2.95034
   C        2.92933         4.57362         5.97540
   C        2.04939         4.88273         6.95850
   C        2.45676         5.12878         8.29531
   N        1.58819         5.43941         9.31373
   C        0.14962         5.51720         9.22694
   C       -0.49536         4.13367         9.21800
   C        2.25554         5.62756        10.53739
   O        1.69006         5.88662        11.57910
   C        3.65408         5.43483        10.21363
   C        3.74231         5.12070         8.83377
   C        5.13639         4.90109         8.51733
   O        5.70185         4.61085         7.48120
   N        5.80316         5.08977         9.73937
   C        7.23793         4.97509         9.83683
   C        7.91704         6.34240         9.84823
   C        4.93565         5.41843        10.75318
   C        5.34338         5.66662        12.09324
   C        4.48130         6.11088        13.03155
   C        4.80985         6.38625        14.40550
   C        5.59330         5.58090        15.26169
   C        6.11658         4.24725        14.89141
   O        6.01457         3.66266        13.85435
   S        6.97030         3.53166        16.29771
   C        6.63875         4.94371        17.34852
   O        6.99196         4.99338        18.48731
   C        5.85810         5.94191        16.58540
   C        5.40254         7.14141        17.16444
   C        4.54928         7.88976        16.34039
   C        4.26953         7.52203        15.03011
   C        3.36583         8.54851        14.46202
   O        2.96322         8.69978        13.35342
   O        3.05439         9.41610        15.49015
   C        3.71097         9.07957        16.64284
   O        3.54476         9.67180        17.66539
   C        5.77392         7.56997        18.49549
   C        6.05516         8.84082        18.78909
   C        6.41467         9.31074        20.15383
   C        7.65659         8.61022        20.73801
   O        8.64879         8.31032        20.15057
   O        7.46639         8.39144        22.04462
   C        6.23370         8.94706        22.49471
   C        5.36276         9.00886        21.23065
   C        4.19029         9.97776        21.28914
   C        4.59117        11.36242        21.78036
   C        5.38015        11.35150        23.08577
   C        6.51846        10.31590        23.15401
   O        6.75493        10.12748        24.54247
   C        5.71625        10.53453        25.29228
   O        5.69701        10.44267        26.48106
   C        4.60998        11.09358        24.39302
   C        3.49816        10.08794        24.34380
   C        2.23002        10.39633        24.54378
   H       -3.31553         6.63824        -1.31022
   H       -2.28682         6.01083        -2.60266
   H       -1.80762         2.97710        -0.16462
   H       -2.29459         5.24231         0.34581
   H        0.06590         5.35625         0.30234
   H       -0.51497         6.80146        -0.51094
   H        1.41733         5.72398        -1.67865
   H       -0.00708         5.90078        -2.69400
   H        0.82316         3.78006        -3.17334
   H       -1.46568         3.29032        -3.09467
   H        2.31789         2.91243        -1.61301
   H        0.30445         3.19404         0.69537
   H        3.33139         3.55106         0.48243
   H        3.98879         4.50496         6.18016
   H        0.99981         4.94427         6.71185
   H       -0.13165         6.08314         8.33493
   H       -0.17596         6.06868        10.11338
   H       -0.16137         3.55222         8.36177
   H       -1.57610         4.23362         9.17236
   H       -0.23407         3.59611        10.12614
   H        7.55699         4.41549         8.95311
   H        7.49678         4.40029        10.73015
   H        7.68509         6.87958         8.93183
   H        8.99423         6.21773         9.91413
   H        7.58038         6.93962        10.69301
   H        6.38459         5.51081        12.33269
   H        3.46618         6.35759        12.74224
   H        5.88392         6.79344        19.23877
   H        6.04883         9.58892        18.01052
   H        6.63945        10.38081        20.12758
   H        5.84121         8.26559        23.25451
   H        4.97131         8.00363        21.04261
   H        3.42509         9.56679        21.94720
   H        3.76068        10.05771        20.28882
   H        3.69307        11.96514        21.92087
   H        5.19666        11.85783        21.01868
   H        5.84660        12.33780        23.19817
   H        7.44890        10.70445        22.72505
   H        4.22253        12.02217        24.81639
   H        3.79204         9.06037        24.17808
   H        1.91430        11.40836        24.73440
   H        1.45537         9.64963        24.52482
*
