# ORCA input file
# SCF done       -221.866317997764          0.000719554428
! CAM-B3LYP def2-SVP def2/J RIJCOSX Grid4 TightSCF
%maxcore 5000
%tddft
    Mode sTDDFT
    Ethresh 5.0
    maxcore 5000
end

%pal
  nprocs 6
  end
* xyz 0 1
   C       -3.11321         0.12165        -4.19608
   C       -2.54296         1.30146        -4.64718
   C       -1.26359         1.63536        -4.19997
   C       -0.66157         2.83679        -4.64999
   N       -0.18074         3.80807        -5.01848
   C       -0.55784         0.80102        -3.31140
   C        0.73538         1.17043        -2.87000
   N        1.78173         1.45189        -2.49990
   C       -1.13247        -0.39026        -2.86701
   C       -2.39694        -0.70788        -3.31529
   C       -3.20087        -1.90897        -2.98504
   O       -2.83282        -2.82202        -2.28188
   C       -4.46164        -1.76308        -3.75347
   C       -4.41237        -0.49312        -4.46321
   C       -5.41789         0.08286        -5.19237
   C       -5.31063         1.33420        -5.83839
   N       -5.28289         2.34080        -6.38838
   C       -6.70738        -0.45833        -5.39162
   N       -7.78047        -0.81316        -5.59383
   C       -5.43218        -2.70454        -3.94119
   C       -5.68158        -3.93836        -3.26046
   C       -6.43471        -4.91294        -3.94964
   C       -6.69997        -6.11563        -3.35049
   C       -6.25541        -6.36903        -2.03903
   C       -5.56462        -5.39655        -1.32755
   C       -5.28201        -4.19379        -1.93794
   C       -6.64290        -7.71215        -1.67602
   C       -7.34726        -8.28550        -2.75048
   C       -7.48664        -7.29440        -3.88490
   C       -8.94668        -6.81663        -4.07055
   C       -9.95691        -7.89318        -4.44369
   C       -6.89391        -7.83381        -5.19596
   C       -5.41656        -8.18711        -5.06477
   C       -7.76405        -9.59552        -2.68330
   C       -7.49321       -10.34274        -1.52945
   C       -6.78999        -9.75882        -0.46771
   C       -6.36708        -8.44858        -0.53175
   C       -7.86548       -11.73778        -1.40443
   N       -9.03041       -12.30024        -1.86274
   C      -10.15155       -11.62677        -2.45981
   C       -9.10624       -13.67633        -1.55517
   O      -10.06336       -14.36121        -1.86330
   C       -7.86409       -13.96350        -0.87917
   C       -7.13299       -12.73755        -0.79668
   C       -5.87386       -13.01458        -0.15515
   O       -4.90994       -12.32661         0.10785
   N       -5.93751       -14.39477         0.15041
   C       -4.77107       -15.03984         0.69116
   C       -7.11917       -14.96092        -0.26596
   C       -7.51844       -16.33755        -0.06747
   C       -8.49996       -16.86118        -0.92470
   C       -8.93710       -18.14954        -0.74615
   C       -8.40296       -18.95431         0.27298
   C       -7.45079       -18.43981         1.14126
   C       -7.02317       -17.13804         0.97170
   C       -9.03074       -20.25387         0.20601
   C       -9.97925       -20.24124        -0.83699
   C      -10.02608       -18.88172        -1.49769
   C      -11.35220       -18.14365        -1.18776
   C      -12.57831       -18.63571        -1.94409
   C       -9.74541       -18.94922        -3.00562
   C       -8.36580       -19.52010        -3.31488
   C      -10.70678       -21.37202        -1.11094
   C      -10.50262       -22.53193        -0.34348
   C       -9.51809       -22.54169         0.65327
   C       -8.79595       -21.40481         0.94521
   C      -11.26856       -23.72383        -0.58336
   C      -12.56044       -23.81971        -0.98554
   C      -13.07340       -25.10356        -1.53324
   O      -12.53402       -26.18294        -1.49259
   C      -14.35962       -24.75887        -2.18520
   C      -15.18302       -25.56508        -2.94236
   C      -16.33867       -25.00104        -3.48527
   C      -16.63471       -23.64200        -3.26362
   C      -15.79917       -22.83666        -2.48799
   C      -14.66091       -23.40428        -1.94085
   C      -13.62973       -22.84160        -1.06793
   C      -13.79063       -21.73144        -0.28534
   C      -12.90576       -21.34541         0.74595
   N      -12.27161       -21.00522         1.63903
   C      -14.92061       -20.88663        -0.34557
   N      -15.81289       -20.16612        -0.36914
   C      -17.80089       -23.08068        -3.84099
   N      -18.73803       -22.61723        -4.30748
   C      -17.21211       -25.79472        -4.26731
   N      -17.90668       -26.45254        -4.89659
   H       -3.04855         1.96455        -5.33065
   H       -0.60540        -1.04523        -2.18982
   H       -6.12161        -2.51744        -4.75709
   H       -6.76960        -4.70641        -4.95611
   H       -5.25221        -5.57709        -0.31075
   H       -4.76542        -3.43093        -1.38212
   H       -8.94633        -6.04664        -4.84482
   H       -9.26655        -6.34441        -3.13785
   H       -9.67193        -8.40709        -5.35775
   H      -10.92762        -7.43085        -4.60799
   H      -10.06320        -8.62089        -3.64435
   H       -7.02108        -7.07984        -5.97550
   H       -7.44563        -8.72447        -5.49873
   H       -4.83114        -7.31165        -4.79266
   H       -5.03925        -8.57188        -6.00931
   H       -5.26855        -8.94705        -4.30052
   H       -8.23821       -10.06681        -3.52861
   H       -6.57196       -10.35399         0.40390
   H       -5.81552        -8.01150         0.28587
   H      -10.02411       -11.51376        -3.53929
   H      -10.29667       -10.64838        -2.00236
   H      -11.03026       -12.24994        -2.28692
   H       -3.92442       -14.38413         0.47789
   H       -4.61257       -16.01077         0.22308
   H       -4.83902       -15.15461         1.77578
   H       -8.91004       -16.24544        -1.70697
   H       -7.05947       -19.03831         1.94985
   H       -6.32772       -16.72929         1.68426
   H      -11.20569       -17.08560        -1.41290
   H      -11.53681       -18.23262        -0.11383
   H      -12.47973       -18.46772        -3.01309
   H      -13.45504       -18.09377        -1.59687
   H      -12.75302       -19.69415        -1.77006
   H       -9.82599       -17.94192        -3.41761
   H      -10.50180       -19.57328        -3.48310
   H       -7.58447       -18.89578        -2.88749
   H       -8.21450       -19.57086        -4.39064
   H       -8.26388       -20.52361        -2.90603
   H      -11.40123       -21.40699        -1.93779
   H       -9.36190       -23.44555         1.22284
   H       -8.05618       -21.41266         1.73073
   H      -10.74680       -24.66990        -0.47531
   H      -14.93994       -26.60329        -3.11021
   H      -16.05196       -21.79812        -2.34268
*
