# ORCA input file
# SCF done       -206.448430040236          0.000400628109
! CAM-B3LYP def2-SVP def2/J RIJCOSX Grid4 TightSCF
%maxcore 5000
%tddft
    Mode sTDDFT
    Ethresh 5.0
    maxcore 5000
end

%pal
  nprocs 6
  end
* xyz 0 1
   C      -12.60675        -8.50256        -6.97034
   C      -13.64377        -8.63690        -7.87693
   C      -14.02138        -7.51981        -8.62720
   C      -15.08012        -7.63643        -9.56077
   N      -15.93501        -7.73747       -10.31572
   C      -13.36916        -6.28235        -8.47476
   C      -13.76400        -5.16916        -9.25344
   N      -14.06125        -4.25312        -9.87358
   C      -12.32732        -6.15053        -7.55454
   C      -11.96764        -7.25953        -6.82051
   C      -10.91585        -7.36601        -5.78563
   O      -10.20854        -6.43646        -5.42963
   C      -10.96308        -8.74591        -5.29925
   C      -11.97067        -9.45764        -6.06027
   C      -12.25852       -10.79996        -6.02771
   C      -13.25394       -11.41255        -6.81793
   N      -14.04797       -11.97341        -7.42860
   C      -11.60264       -11.78078        -5.25352
   N      -11.11714       -12.65487        -4.68735
   C      -10.27741        -9.33206        -4.24874
   C       -9.20471        -8.91912        -3.44822
   C       -8.43521        -7.77063        -3.58234
   C       -7.32385        -7.47165        -2.82103
   C       -6.78069        -8.42110        -1.83507
   C       -7.38666        -9.57954        -1.49051
   S       -8.85054       -10.12356        -2.18546
   C       -5.55703        -7.85423        -1.39753
   C       -5.34265        -6.63280        -2.05144
   C       -4.13010        -6.02206        -1.65181
   C       -3.47261        -6.77465        -0.73533
   S       -4.28913        -8.24817        -0.31187
   C       -6.44840        -6.35656        -2.91197
   C       -6.56927        -5.15667        -3.66012
   C       -7.72188        -4.58491        -4.08604
   C       -7.78500        -3.38409        -4.85505
   N       -8.86625        -2.55277        -4.83391
   C      -10.05951        -2.63929        -4.03270
   C      -11.16897        -3.38567        -4.76877
   N       -8.72015        -1.53507        -5.65745
   C       -7.54494        -1.68027        -6.25985
   C       -6.89141        -2.82839        -5.78670
   C       -5.58154        -3.37648        -6.24328
   C       -4.39316        -2.76026        -5.50008
   C       -7.09442        -0.67429        -7.26050
   C       -6.33913         0.48762        -6.57982
   C       -6.08588         1.57464        -7.55921
   C       -4.94017         1.73812        -8.22888
   C       -4.69966         2.77862        -9.20076
   C       -5.37250         3.97456        -9.19967
   C       -5.19305         5.00353       -10.12200
   C       -4.17186         4.89189       -11.16465
   C       -3.38170         3.80583       -11.34367
   S       -3.47156         2.39728       -10.37763
   C       -4.19232         6.13153       -11.86326
   C       -5.14890         6.96976       -11.29849
   C       -5.21307         8.21908       -11.95072
   C       -4.31816         8.29389       -12.97204
   S       -3.37040         6.86315       -13.18390
   C       -5.80666         6.28031       -10.20955
   C       -6.82183         6.87570        -9.45001
   C       -7.64095         6.30196        -8.50519
   C       -8.58408         7.04244        -7.79499
   C       -9.43052         6.59132        -6.80010
   C      -10.63917         7.36764        -6.46608
   O      -10.91932         8.49156        -6.82130
   C      -11.47071         6.45979        -5.63209
   C      -12.73044         6.66802        -5.11656
   C      -13.32056         5.63668        -4.38038
   C      -12.63409         4.42396        -4.18707
   C      -11.35078         4.22878        -4.70527
   C      -10.77018         5.25613        -5.42535
   C       -9.44464         5.37619        -6.04062
   C       -8.37693         4.56218        -5.73065
   C       -7.03482         4.87388        -6.01382
   N       -5.91506         5.07762        -6.17476
   C       -8.46328         3.35932        -5.00695
   N       -8.44605         2.34445        -4.46700
   C      -13.24603         3.37904        -3.45329
   N      -13.72290         2.52109        -2.86314
   C      -14.61129         5.81275        -3.82843
   N      -15.65506         5.97461        -3.38514
   H      -14.17057        -9.56598        -8.02251
   H      -11.81802        -5.20791        -7.42399
   H      -10.63563       -10.32013        -3.98185
   H       -8.71974        -7.08991        -4.37075
   H       -6.98214       -10.24448        -0.74337
   H       -3.76317        -5.08176        -2.02101
   H       -2.53534        -6.56144        -0.25966
   H       -5.64003        -4.62649        -3.81060
   H       -8.66873        -5.02422        -3.80908
   H      -10.37609        -1.61335        -3.83006
   H       -9.82054        -3.13171        -3.08754
   H      -11.40314        -2.86990        -5.69692
   H      -12.06323        -3.41852        -4.15240
   H      -10.85842        -4.40234        -4.99661
   H       -5.46573        -3.17917        -7.31219
   H       -5.57999        -4.45978        -6.10158
   H       -4.30208        -1.70327        -5.73540
   H       -3.46965        -3.25747        -5.78899
   H       -4.51589        -2.85041        -4.42277
   H       -7.97675        -0.27388        -7.76193
   H       -6.44586        -1.14045        -8.00469
   H       -5.40006         0.11870        -6.16675
   H       -6.96078         0.86449        -5.76448
   H       -6.92892         2.21988        -7.76550
   H       -4.12868         1.03826        -8.07679
   H       -6.03792         4.13298        -8.36958
   H       -2.63415         3.75891       -12.11979
   H       -5.87700         9.02242       -11.68830
   H       -4.14720         9.11949       -13.63484
   H       -6.96999         7.93333        -9.63809
   H       -7.59814         5.24002        -8.33241
   H       -8.74720         8.07285        -8.09336
   H      -13.24774         7.60202        -5.27505
   H      -10.85247         3.28644        -4.53924
*
