# ORCA input file
# SCF done       -249.873561929550          0.000429313338
! CAM-B3LYP def2-SVP def2/J RIJCOSX Grid4 TightSCF
%maxcore 5000
%tddft
    Mode sTDDFT
    Ethresh 5.0
    maxcore 5000
end

%pal
  nprocs 6
  end
* xyz 0 1
   C       22.41363        -9.74095        -5.08806
   C       23.22910       -10.86275        -5.12842
   F       24.31484       -10.84506        -5.91030
   C       22.94630       -12.00297        -4.37691
   F       23.76154       -13.06293        -4.44672
   C       21.82932       -12.04890        -3.55807
   C       21.01928       -10.93199        -3.51846
   C       21.29453        -9.77852        -4.27143
   C       20.25240        -8.78355        -4.00704
   C       20.18910        -7.54157        -4.58521
   C       21.13261        -7.05233        -5.51348
   N       21.86117        -6.59355        -6.27244
   C       19.18961        -6.57264        -4.35694
   N       18.41979        -5.72889        -4.23324
   C       19.33246        -9.36464        -3.05199
   C       19.78314       -10.72091        -2.73506
   O       19.26588       -11.52798        -1.98422
   C       18.22856        -8.74165        -2.51631
   C       17.28596        -9.20204        -1.59279
   S       17.21956       -10.77588        -0.83373
   C       15.79818       -10.32632         0.04815
   C       15.40149        -9.02087        -0.23411
   C       16.22633        -8.40212        -1.14561
   C       15.17195       -11.22797         0.93846
   C       15.52560       -12.53581         1.21276
   C       14.70070       -13.14928         2.14903
   C       13.69523       -12.32576         2.61939
   S       13.77544       -10.75752         1.87412
   C       12.69765       -12.62200         3.58242
   S       12.58805       -14.19426         4.32026
   C       11.23145       -13.70036         5.29143
   C       10.90348       -12.38505         5.03230
   C       11.72015       -11.78351         4.07752
   C       10.63451       -14.63299         6.19368
   C        9.66051       -14.32223         7.06864
   C        9.01035       -15.26927         7.95406
   C        8.81382       -16.59679         7.54527
   C        8.12494       -17.51394         8.30991
   C        7.59188       -17.14720         9.54110
   C        7.79168       -15.85825         9.97801
   C        8.50058       -14.92338         9.21011
   N        8.59938       -13.73120         9.91581
   C        9.38281       -12.57104         9.58231
   C        7.99475       -13.82159        11.14034
   O        7.94706       -12.93557        11.95947
   C        7.41012       -15.22256        11.27770
   C        8.05717       -15.91746        12.49180
   C        9.49033       -16.31845        12.13788
   O       10.37891       -15.59657        11.75052
   N        9.59585       -17.67157        12.30245
   C       10.79456       -18.41111        12.01709
   C        8.39653       -18.23138        12.71966
   C        8.10682       -19.55337        12.97628
   C        6.80550       -19.88531        13.38257
   C        5.84968       -18.86979        13.50895
   C        6.15265       -17.54252        13.25168
   C        7.43231       -17.22339        12.85549
   C        6.39907       -21.24051        13.67946
   C        7.18816       -22.33160        13.71870
   C        6.72798       -23.64679        14.02704
   S        7.86955       -24.95815        14.10435
   C        6.61915       -26.09819        14.49969
   C        5.39074       -25.46861        14.55951
   C        5.45319       -24.10242        14.29667
   C        6.90041       -27.47310        14.72009
   C        5.99988       -28.48082        15.01250
   C        6.59722       -29.72630        15.17617
   C        7.96869       -29.70546        15.01495
   S        8.52199       -28.09443        14.64835
   C        8.87375       -30.78921        15.11797
   S        8.31199       -32.39137        15.47613
   C        9.93741       -33.02252        15.42123
   C       10.84158       -32.00912        15.13688
   C       10.25098       -30.76616        14.96608
   C       10.22459       -34.38755        15.61046
   C        9.29537       -35.34111        15.90654
   C        9.55294       -36.70645        16.13574
   C       10.62908       -37.49087        15.81032
   C       10.81785       -38.76005        16.55762
   O       10.02782       -39.29215        17.30293
   C       12.19276       -39.20492        16.23264
   C       12.74311       -38.34219        15.26964
   C       14.04191       -38.53435        14.82813
   C       14.75956       -39.59486        15.36200
   C       14.20118       -40.45508        16.30738
   C       12.90327       -40.26681        16.75553
   F       14.92878       -41.46990        16.79031
   F       16.02068       -39.79056        14.95984
   C       11.73231       -37.34992        14.89135
   C       11.76125       -36.61983        13.72950
   C       10.67881       -35.85721        13.24958
   N        9.82322       -35.23752        12.80056
   C       12.85310       -36.59692        12.83848
   N       13.71956       -36.52023        12.08936
   H       22.67842        -8.88633        -5.68838
   H       21.60615       -12.92782        -2.97468
   H       18.03956        -7.72576        -2.84152
   H       14.53929        -8.56491         0.22020
   H       16.09093        -7.39445        -1.49781
   H       16.36312       -13.01287         0.73565
   H       14.81875       -14.16257         2.48993
   H       10.09053       -11.87456         5.51530
   H       11.61568       -10.76502         3.74674
   H       11.03817       -15.63572         6.16584
   H        9.30520       -13.30494         7.11030
   H        9.18767       -16.89276         6.57712
   H        7.98795       -18.52057         7.94543
   H        7.04038       -17.85564        10.14072
   H        8.87021       -11.93852         8.85413
   H       10.35812       -12.87077         9.19968
   H        9.51163       -12.00232        10.50423
   H        6.32872       -15.16921        11.43033
   H        8.05839       -15.20482        13.32375
   H       11.55097       -17.69439        11.69971
   H       10.61836       -19.13128        11.21518
   H       11.14281       -18.93768        12.90779
   H        8.86040       -20.31450        12.86034
   H        4.84952       -19.13129        13.82086
   H        5.39932       -16.77709        13.36112
   H        5.34748       -21.35764        13.90342
   H        8.24764       -22.25184        13.52049
   H        4.47840       -25.98796        14.78954
   H        4.58868       -23.46418        14.30124
   H        4.94257       -28.31245        15.10142
   H        6.05962       -30.62922        15.40573
   H       11.89885       -32.18788        15.05274
   H       10.78819       -29.86263        14.73764
   H       11.27255       -34.65386        15.55574
   H        8.27375       -35.01573        16.05770
   H        8.80990       -37.22808        16.73298
   H       14.51796       -37.89619        14.10170
   H       12.46960       -40.92949        17.48726
*
