# ORCA input file
# SCF done       -202.097086833799          0.000727848575
! CAM-B3LYP def2-SVP def2/J RIJCOSX Grid4 TightSCF
%maxcore 5000
%tddft
    Mode sTDDFT
    Ethresh 5.0
    maxcore 5000
end

%pal
  nprocs 6
  end
* xyz 0 1
   C        8.65549         0.99990        -1.57156
   C        9.02458         1.52764        -2.80170
   C        8.10023         1.67469        -3.82393
   C        6.77268         1.30944        -3.64299
   C        6.39465         0.78312        -2.42178
   C        7.33817         0.61794        -1.38156
   C        6.67138         0.00289        -0.23889
   C        7.27089        -0.34325         0.95511
   C        8.61179        -0.05145         1.27759
   N        9.68976         0.15977         1.61262
   C        6.66403        -1.02800         2.01843
   N        6.25244        -1.60690         2.92681
   C        5.30689        -0.25435        -0.63738
   C        5.09201         0.36198        -1.92357
   C        3.87315         0.75417        -2.42504
   C        2.68231         0.67061        -1.67688
   N        1.71671         0.68162        -1.05422
   C        3.70074         1.39020        -3.66796
   N        3.50116         1.89318        -4.68087
   C        4.44314        -1.02514         0.12251
   C        3.39187        -1.87379        -0.22923
   C        2.76008        -2.58383         0.79176
   C        1.81043        -3.55906         0.61993
   C        1.30156        -3.91478        -0.70274
   C        1.76633        -3.37481        -1.85077
   S        3.01863        -2.20350        -1.92317
   C        0.32442        -4.92031        -0.46313
   C        0.25209        -5.21726         0.90486
   C       -0.70425        -6.22687         1.16457
   C       -1.30918        -6.65348         0.02631
   S       -0.75138        -5.86066        -1.40823
   C        1.18873        -4.38353         1.60875
   C        1.55643        -4.36094         2.95710
   C        1.07674        -5.18690         3.94292
   C        1.47474        -5.24303         5.28151
   S        0.50780        -6.27196         6.30817
   C        1.41283        -5.88575         7.72681
   C        2.44678        -4.97212         7.41609
   C        2.51460        -4.63239         6.03381
   C        3.57383        -3.81931         5.59764
   C        4.47467        -3.30518         6.50233
   S        5.85337        -2.29584         6.03861
   C        4.34738        -3.57637         7.89173
   O        5.18355        -3.04732         8.80687
   C        3.35527        -4.42184         8.32633
   C        1.19933        -6.49247         8.96538
   C        0.22669        -7.40730         9.26353
   C        0.19423        -8.15921        10.46114
   C        1.27437        -8.25505        11.32318
   C        1.33958        -9.06585        12.43794
   C        0.22061        -9.90860        12.84841
   C       -0.95248        -9.96788        12.17550
   S       -1.27650        -9.07136        10.74863
   C        0.69365       -10.63163        13.97959
   C        2.03112       -10.31214        14.23568
   C        2.53649       -11.02750        15.34320
   C        1.59835       -11.85179        15.87930
   S        0.07029       -11.79955        15.07112
   C        2.46282        -9.32974        13.27535
   C        3.72596        -8.79600        13.02385
   C        4.93346        -9.18057        13.56129
   C        6.17210        -8.67256        13.16635
   C        6.52774        -7.93683        12.04001
   C        7.68348        -7.05904        12.01388
   C        8.62480        -6.87680        12.99892
   C        8.67032        -7.51830        14.25307
   N        8.79209        -7.97101        15.30290
   C        9.72228        -5.99767        12.89404
   N       10.64368        -5.31171        12.88874
   C        7.64980        -6.33186        10.74952
   C        6.54111        -6.78171        10.00052
   C        6.29023        -6.26846         8.73872
   C        7.14628        -5.30266         8.23165
   C        8.22629        -4.84894         8.97186
   C        8.48957        -5.35801        10.23518
   C        5.88399        -7.84754        10.74709
   C        4.98800        -8.73353        10.18299
   C        4.31436        -8.51261         8.96974
   N        3.66112        -8.35358         8.03592
   C        4.64241        -9.98254        10.73022
   N        4.36648       -11.04159        11.08052
   H        9.38888         0.89526        -0.78894
   H       10.05000         1.82448        -2.96111
   H        8.41292         2.07909        -4.77451
   H        6.06122         1.42541        -4.44477
   H        4.70096        -1.09059         1.17040
   H        3.07242        -2.32999         1.79548
   H        1.39659        -3.65952        -2.82298
   H       -0.94987        -6.62547         2.13134
   H       -2.06909        -7.40421        -0.06867
   H        2.29357        -3.62171         3.22439
   H        0.28545        -5.87492         3.68192
   H        3.71429        -3.61067         4.55036
   H        5.67889        -2.26869         4.71795
   H        5.84175        -2.48066         8.38162
   H        3.29984        -4.63597         9.38039
   H        1.90982        -6.21585         9.73001
   H       -0.55258        -7.59952         8.53825
   H        2.15174        -7.68718        11.05472
   H       -1.76556       -10.60849        12.47788
   H        3.53215       -10.94525        15.73746
   H        1.70706       -12.50754        16.72095
   H        3.75410        -7.99774        12.29343
   H        4.94002        -9.89081        14.37361
   H        6.97262        -8.83928        13.87542
   H        5.44952        -6.60171         8.15232
   H        6.97105        -4.90666         7.24284
   H        8.87875        -4.09442         8.55933
   H        9.34084        -5.00052        10.78976
*
