# ORCA input file
# SCF done       -260.094910513403          0.000966017680
! CAM-B3LYP def2-SVP def2/J RIJCOSX Grid4 TightSCF
%maxcore 5000
%tddft
    Mode sTDDFT
    Ethresh 5.0
    maxcore 5000
end

%pal
  nprocs 6
  end
* xyz 0 1
   C       -5.92058       -12.92940         2.25722
   C       -6.84084       -13.29736         3.22513
   C       -7.67710       -12.35637         3.80967
   C       -7.60025       -11.01754         3.46181
   C       -6.67841       -10.63227         2.50106
   C       -5.84744       -11.59627         1.88266
   C       -5.03403       -10.94029         0.87591
   C       -4.24957       -11.55047        -0.06131
   C       -4.06603       -12.94792        -0.15142
   N       -3.88016       -14.07266        -0.28179
   C       -3.56391       -10.88736        -1.10305
   N       -3.00293       -10.42028        -1.98949
   C       -5.25914        -9.49821         1.02873
   C       -6.41975        -9.33619         1.90238
   C       -7.19214        -8.21524         2.03238
   C       -7.09338        -7.08346         1.19706
   N       -7.11962        -6.16388         0.51033
   C       -8.21937        -8.07710         2.98821
   N       -9.02680        -7.88598         3.78172
   C       -4.37140        -8.57556         0.59921
   C       -4.26173        -7.14668         0.83344
   C       -4.40038        -6.53633         2.09382
   C       -4.68521        -7.33014         3.30947
   O       -4.24490        -8.45357         3.49157
   C       -5.55110        -6.69435         4.31203
   C       -6.45203        -5.67759         4.12266
   S       -7.29782        -5.28687         5.55000
   C       -6.43965        -6.49418         6.43630
   C       -5.56140        -7.17344         5.65948
   C       -4.60836        -8.24375         6.09045
   O       -3.44784        -7.98864         6.31203
   C       -5.18128        -9.60170         6.23946
   C       -4.31002       -10.68872         6.19398
   C       -4.78713       -11.97194         6.37495
   C       -6.13271       -12.17864         6.63391
   C       -7.00362       -11.10173         6.68233
   C       -6.53840        -9.81815         6.46542
   C       -4.17218        -5.16619         2.20210
   C       -3.86004        -4.40191         1.09864
   C       -3.74574        -4.98697        -0.16439
   C       -3.92709        -6.36208        -0.26685
   C       -3.38234        -4.18154        -1.33271
   C       -2.53571        -4.68032        -2.29053
   C       -2.12292        -3.86476        -3.36472
   C       -1.25307        -4.11186        -4.42169
   C       -0.55735        -5.39942        -4.69964
   C       -0.70954        -5.89302        -6.16048
   N        0.25673        -5.32592        -7.09160
   C        0.92770        -5.31425        -4.25048
   N        1.63112        -6.57541        -4.21210
   C       -1.13933        -2.87430        -5.15465
   C       -0.35988        -2.53534        -6.19810
   C       -0.40114        -1.16519        -6.78288
   C       -1.38326        -0.23795        -6.15242
   C       -2.12382        -0.58630        -5.08202
   C       -2.02274        -1.88513        -4.53125
   C       -2.61250        -2.49746        -3.43774
   C       -3.52145        -2.03053        -2.46503
   C       -3.88775        -2.85011        -1.44395
   C       -0.57117        -1.35876        -8.26787
   C       -1.59174        -0.95060        -9.01150
   C       -1.65962        -1.29881       -10.43010
   C       -2.10714        -0.39624       -11.40187
   C       -2.59795         0.95043       -10.98885
   O       -1.91115         1.73225       -10.36375
   C       -3.97923         1.24322       -11.38393
   C       -4.83076         0.38355       -12.03251
   S       -6.34158         1.09700       -12.37161
   C       -5.84916         2.58149       -11.64054
   C       -4.59136         2.51599       -11.13936
   C       -3.92163         3.62716       -10.39821
   O       -3.64407         4.67476       -10.93459
   C       -3.66968         3.35627        -8.96354
   C       -2.79941         4.19872        -8.27419
   C       -2.53573         3.98418        -6.93574
   C       -3.14591         2.93288        -6.27004
   C       -4.02068         2.09628        -6.94634
   C       -4.28278         2.30299        -8.28727
   C       -2.05334        -0.74209       -12.74869
   C       -1.64561        -2.00012       -13.14176
   C       -1.30282        -2.95058       -12.17658
   C       -1.27172        -2.56748       -10.83715
   C       -0.92818        -4.31707       -12.46146
   C       -1.36654        -5.17099       -13.41108
   C       -0.71380        -6.46132       -13.66757
   C       -0.00771        -7.20400       -12.75904
   C        0.12987        -6.87847       -11.39373
   N        0.24926        -6.68207       -10.26739
   C        0.61123        -8.43474       -13.06435
   N        1.14261        -9.43328       -13.25757
   C       -1.02511        -6.81429       -15.03722
   C       -2.00620        -5.91610       -15.52763
   C       -2.48000        -6.03683       -16.82591
   C       -1.97426        -7.04894       -17.62483
   C       -1.01676        -7.93377       -17.14204
   C       -0.53470        -7.82819       -15.84813
   C       -2.36071        -4.98689       -14.47071
   C       -3.51239        -4.25015       -14.39967
   C       -4.45185        -4.16564       -15.44944
   N       -5.23693        -4.03952       -16.27687
   C       -3.96292        -3.55358       -13.26102
   N       -4.43280        -3.00005       -12.37073
   H       -5.28160       -13.67156         1.80742
   H       -6.91173       -14.33279         3.52122
   H       -8.40078       -12.67099         4.54522
   H       -8.24776       -10.29771         3.93412
   H       -3.56351        -8.94617        -0.02083
   H       -6.68509        -5.16415         3.21000
   H       -6.62824        -6.61530         7.48454
   H       -3.26340       -10.49988         6.01030
   H       -4.10998       -12.81186         6.32923
   H       -6.50241       -13.17984         6.80057
   H       -8.05144       -11.26172         6.89050
   H       -7.22563        -8.98571         6.49450
   H       -4.20239        -4.70459         3.17764
   H       -3.66723        -3.34711         1.22093
   H       -3.85133        -6.83824        -1.23340
   H       -2.13864        -5.68039        -2.19598
   H       -1.03539        -6.16227        -4.07271
   H       -1.70677        -5.61095        -6.50990
   H       -0.66854        -6.99505        -6.14619
   H        0.01841        -5.60892        -8.03722
   H        1.18561        -5.69110        -6.90403
   H        0.95522        -4.89110        -3.24264
   H        1.46767        -4.63601        -4.91370
   H        1.20735        -7.20626        -3.54082
   H        1.62259        -7.03345        -5.11628
   H        0.27832        -3.27034        -6.67156
   H        0.60290        -0.72693        -6.64527
   H       -1.44808         0.74981        -6.58330
   H       -2.80418         0.12046        -4.62915
   H       -3.91201        -1.02593        -2.53603
   H       -4.59492        -2.51008        -0.70257
   H        0.22631        -1.93099        -8.72372
   H       -2.37931        -0.33376        -8.60436
   H       -4.65580        -0.64027       -12.30493
   H       -6.52923         3.40884       -11.60179
   H       -2.33346         5.00900        -8.81386
   H       -1.85428         4.63476        -6.40777
   H       -2.93989         2.76586        -5.22263
   H       -4.49733         1.27720        -6.42753
   H       -4.97221         1.65055        -8.80394
   H       -2.32825        -0.01032       -13.49405
   H       -1.58053        -2.24231       -14.19236
   H       -0.98877        -3.29533       -10.09127
   H       -0.16955        -4.69700       -11.78867
   H       -3.21722        -5.35369       -17.21569
   H       -2.32939        -7.14967       -18.63893
   H       -0.63943        -8.71358       -17.78554
   H        0.21286        -8.51626       -15.48784
*
