# ORCA input file
# SCF done       -199.418628392294          0.000752692220
! CAM-B3LYP def2-SVP def2/J RIJCOSX Grid4 TightSCF
%maxcore 5000
%tddft
    Mode sTDDFT
    Ethresh 5.0
    maxcore 5000
end

%pal
  nprocs 6
  end
* xyz 0 1
   C       -4.91951       -15.62192        -8.95832
   C       -4.09424       -15.47389       -10.06402
   C       -2.89384       -14.78595        -9.97387
   C       -2.47722       -14.23514        -8.77046
   C       -3.29181       -14.37820        -7.66077
   C       -4.52204       -15.06683        -7.75319
   C       -5.18426       -15.02124        -6.45420
   C       -6.40246       -15.58860        -6.15983
   C       -7.14779       -16.37703        -7.05880
   N       -7.80796       -17.03409        -7.73094
   C       -7.08329       -15.47776        -4.93325
   N       -7.70385       -15.41477        -3.96679
   C       -4.35230       -14.21732        -5.58291
   C       -3.11203       -13.94957        -6.28100
   C       -1.90843       -13.62991        -5.69972
   C       -1.70893       -13.55253        -4.30792
   N       -1.48173       -13.54812        -3.18176
   C       -0.71121       -13.44627        -6.41642
   N        0.28852       -13.26123        -6.95093
   C       -4.73201       -13.77758        -4.33040
   C       -4.28714       -12.63401        -3.65635
   N       -4.57129       -12.39023        -2.33324
   C       -5.11595       -13.36554        -1.41821
   C       -6.63628       -13.26418        -1.30350
   C       -4.17624       -11.13163        -2.00532
   C       -3.62620       -10.54223        -3.16146
   C       -3.68131       -11.46815        -4.17247
   C       -4.37028       -10.55637        -0.72053
   C       -3.93771        -9.32465        -0.36304
   C       -4.18301        -8.67218         0.89442
   C       -4.92003        -9.24310         1.90944
   C       -5.20173        -8.51493         3.08034
   C       -5.96419        -8.84817         4.19172
   C       -6.61493       -10.17187         4.42928
   C       -6.37549       -10.70562         5.85037
   N       -5.00099       -10.46128         6.25305
   C       -8.11970       -10.11460         4.10784
   N       -8.29576        -9.98178         2.67211
   C       -6.00569        -7.67617         5.03169
   C       -6.69356        -7.39316         6.15313
   C       -6.58168        -6.07391         6.83873
   C       -5.67593        -5.09203         6.16255
   C       -5.02527        -5.37256         5.01945
   C       -5.17321        -6.63650         4.40020
   C       -4.70247        -7.15266         3.21276
   C       -3.90452        -6.60655         2.17836
   C       -3.66035        -7.34293         1.06774
   C       -6.08356        -6.31578         8.23977
   C       -6.76185        -5.95783         9.33520
   C       -6.31037        -6.16728        10.67975
   N       -7.02984        -5.81890        11.78266
   C       -8.36866        -5.28169        11.76307
   C       -9.40915        -6.39354        11.63806
   C       -6.34243        -6.20132        12.91461
   C       -5.13277        -6.77618        12.49101
   C       -5.11287        -6.75059        11.11318
   C       -6.82566        -6.03057        14.22487
   C       -6.19017        -6.47479        15.35215
   C       -6.61189        -6.28227        16.67922
   C       -7.83351        -5.90169        17.19502
   C       -7.98571        -5.29754        18.51183
   C       -7.07776        -5.27640        19.53945
   C       -5.80026        -5.87418        19.54067
   N       -4.74919        -6.32828        19.63721
   C       -7.31655        -4.67251        20.79193
   N       -7.43713        -4.20628        21.83435
   C       -9.31253        -4.69200        18.55213
   C      -10.00191        -5.03400        17.36839
   C      -11.28509        -4.56773        17.13748
   C      -11.87828        -3.75827        18.09489
   C      -11.20667        -3.42812        19.26239
   C       -9.92088        -3.88996        19.50400
   C       -9.14629        -5.90751        16.57742
   C       -9.59695        -6.75820        15.59679
   C      -10.89258        -6.72196        15.04789
   N      -11.90988        -6.71558        14.51362
   C       -8.83552        -7.80230        15.03882
   N       -8.28306        -8.68558        14.55524
   H       -5.84938       -16.15855        -9.04913
   H       -4.39702       -15.89948       -11.00863
   H       -2.27291       -14.67542       -10.84980
   H       -1.54398       -13.69863        -8.71300
   H       -5.53982       -14.31638        -3.85767
   H       -4.65168       -13.21667        -0.44028
   H       -4.82926       -14.36068        -1.76473
   H       -6.93440       -12.26001        -1.01093
   H       -6.99200       -13.96569        -0.55425
   H       -7.11679       -13.50677        -2.24802
   H       -3.24563        -9.54356        -3.23441
   H       -3.37979       -11.32226        -5.19140
   H       -4.92322       -11.14591        -0.00534
   H       -3.37182        -8.74823        -1.08221
   H       -5.32630       -10.23698         1.80641
   H       -6.17440       -10.88558         3.72577
   H       -6.65467       -11.77385         5.86498
   H       -7.02275       -10.19364         6.56644
   H       -4.36139       -10.89372         5.59466
   H       -4.82464       -10.86325         7.16719
   H       -8.58236        -9.29756         4.68674
   H       -8.58875       -11.05505         4.41264
   H       -7.87468        -9.11542         2.35089
   H       -9.28108        -9.95758         2.43422
   H       -7.35180        -8.10771         6.62428
   H       -7.58886        -5.63570         6.90804
   H       -5.56959        -4.13627         6.65293
   H       -4.38973        -4.63357         4.55285
   H       -3.51041        -5.60601         2.28048
   H       -3.06238        -6.93237         0.26668
   H       -5.12096        -6.79846         8.30286
   H       -7.72566        -5.48209         9.21032
   H       -8.45833        -4.57916        10.93067
   H       -8.53644        -4.71267        12.67944
   H       -9.31436        -6.89958        10.68045
   H      -10.41197        -5.98410        11.72244
   H       -9.26870        -7.13189        12.42402
   H       -4.36476        -7.15764        13.13260
   H       -4.32930        -7.11220        10.47879
   H       -7.74714        -5.47823        14.34630
   H       -5.22889        -6.95375        15.23715
   H       -5.81682        -6.38389        17.40649
   H      -11.81593        -4.81320        16.23192
   H      -12.87551        -3.38163        17.92564
   H      -11.68768        -2.79957        19.99618
   H       -9.41557        -3.61893        20.41590
*
