# ORCA input file
# SCF done       -240.605949440139          0.000576599381
! CAM-B3LYP def2-SVP def2/J RIJCOSX Grid4 TightSCF
%maxcore 5000
%tddft
    Mode sTDDFT
    Ethresh 5.0
    maxcore 5000
end

%pal
  nprocs 6
  end
* xyz 0 1
   C        6.81822        20.32927       -16.01086
   C        7.15423        19.21592       -15.28010
   C        8.04891        18.22420       -15.72572
   N        8.75166        17.37640       -16.05219
   C        6.71037        18.99022       -13.96346
   N        6.39862        18.78589       -12.87746
   C        7.47421        20.74866       -17.24706
   C        7.22273        22.13793       -17.44126
   C        7.74670        22.82125       -18.49944
   C        8.55070        22.13132       -19.43545
   C        8.79135        20.73886       -19.25676
   C        8.24141        20.05830       -18.14513
   C        9.58874        20.06142       -20.20097
   C       10.12701        20.72616       -21.26915
   C        9.89091        22.09766       -21.44337
   C        9.11960        22.78508       -20.54583
   C        6.34289        22.62591       -16.36308
   O        5.95633        23.75765       -16.17143
   C        5.97370        21.41627       -15.57924
   C        4.92499        21.50082       -14.70772
   C        4.11924        20.48681       -14.15640
   S        3.05720        20.88395       -12.82727
   C        2.40616        19.27921       -12.79969
   C        2.97117        18.49947       -13.79703
   C        3.92715        19.16766       -14.54474
   C        1.42778        18.90312       -11.84901
   C        0.85079        19.68791       -10.87016
   C       -0.08669        19.01095       -10.09760
   C       -0.25029        17.68896       -10.46410
   S        0.78695        17.28166       -11.80068
   C       -1.12006        16.73086        -9.88670
   S       -2.18068        17.16551        -8.57724
   C       -2.82483        15.54831        -8.49112
   C       -2.22778        14.74113        -9.44025
   C       -1.27919        15.40029       -10.21814
   C       -3.82823        15.26196        -7.52448
   C       -4.38771        14.05003        -7.31509
   C       -5.41160        13.74438        -6.34966
   C       -6.06250        14.71016        -5.61529
   C       -7.06143        14.35561        -4.68761
   C       -7.85100        15.12746        -3.84747
   C       -7.88454        16.61119        -3.68119
   C       -6.49400        17.21627        -3.41765
   N       -6.62648        18.36673        -2.54000
   C       -8.56181        17.26777        -4.89850
   N       -9.96638        16.89659        -4.92723
   C       -8.72733        14.21708        -3.15168
   C       -9.70799        14.44581        -2.25857
   C      -10.55671        13.33576        -1.73709
   C      -10.10472        11.96782        -2.13434
   C       -9.11414        11.75599        -3.02034
   C       -8.41147        12.84920        -3.58520
   C       -7.40241        12.94531        -4.51981
   C       -6.71817        11.97170        -5.28649
   C       -5.76455        12.36304        -6.16575
   C      -11.92887        13.61294        -2.31164
   C      -12.86633        14.32907        -1.68648
   C      -14.14826        14.65610        -2.24135
   S      -15.13073        15.86296        -1.46845
   C      -16.36326        15.71548        -2.68450
   C      -16.01441        14.75844        -3.61506
   C      -14.77331        14.17019        -3.36733
   C      -17.52388        16.53768        -2.67262
   C      -18.58584        16.51493        -3.55513
   C      -19.54327        17.49247        -3.29523
   C      -19.23905        18.28556        -2.20803
   S      -17.73108        17.79288        -1.48812
   C      -19.97065        19.38627        -1.69588
   S      -21.41304        19.95078        -2.47461
   C      -21.59838        21.23883        -1.31025
   C      -20.57663        21.19076        -0.37273
   C      -19.67012        20.16297        -0.58848
   C      -22.67315        22.14305        -1.45487
   C      -22.93218        23.17674        -0.60388
   C      -23.98214        24.11621        -0.68982
   C      -24.81297        24.47488        -1.72272
   C      -25.87321        25.45815        -1.57627
   C      -26.45487        25.86745        -0.40271
   C      -27.49487        26.81664        -0.32996
   N      -28.33671        27.58734        -0.20194
   C      -26.14604        25.37792         0.88351
   N      -25.97962        25.01957         1.96252
   C      -26.28951        25.87925        -2.90850
   C      -25.58559        25.09297        -3.86167
   C      -24.68933        24.15203        -3.16427
   O      -23.99354        23.31574        -3.70520
   C      -25.76785        25.24940        -5.20484
   C      -26.67844        26.22656        -5.66602
   C      -27.38170        27.02443        -4.71853
   C      -27.17409        26.83482        -3.33243
   C      -28.28357        27.99988        -5.18988
   C      -28.48345        28.17929        -6.53163
   C      -27.79074        27.39250        -7.46363
   C      -26.90785        26.43661        -7.03980
   H        7.55179        23.87628       -18.62238
   H        8.43432        19.00219       -18.03771
   H        9.77062        19.00589       -20.06069
   H       10.73875        20.19836       -21.98552
   H       10.32297        22.60694       -22.29191
   H        8.93413        23.84154       -20.67461
   H        4.62435        22.51794       -14.47211
   H        2.68649        17.47420       -13.95449
   H        4.43733        18.72616       -15.38232
   H        1.11482        20.72180       -10.73455
   H       -0.63960        19.45494        -9.28890
   H       -2.47621        13.70320        -9.56669
   H       -0.71294        14.93500       -11.00605
   H       -4.13241        16.10834        -6.92450
   H       -4.04166        13.21298        -7.90726
   H       -5.82382        15.75209        -5.75352
   H       -8.49712        16.84681        -2.80708
   H       -6.00383        17.45982        -4.37484
   H       -5.87319        16.47999        -2.89982
   H       -7.17548        19.09249        -2.98865
   H       -5.71579        18.75602        -2.32295
   H       -8.01526        16.97950        -5.81265
   H       -8.51460        18.35672        -4.80210
   H      -10.05285        15.88955        -5.02289
   H      -10.43159        17.32649        -5.71914
   H       -9.97040        15.44361        -1.93709
   H      -10.61817        13.41062        -0.64415
   H      -10.65348        11.14581        -1.69997
   H       -8.83424        10.75138        -3.30388
   H       -6.96742        10.92753        -5.16418
   H       -5.23691        11.62755        -6.75652
   H      -12.08730        13.23919        -3.31191
   H      -12.67114        14.72885        -0.69951
   H      -16.63702        14.50195        -4.45272
   H      -14.34868        13.40411        -3.99021
   H      -18.65959        15.81078        -4.36333
   H      -20.43677        17.63312        -3.87740
   H      -20.49432        21.89023         0.43914
   H      -18.80967        19.97190         0.02864
   H      -23.31174        21.98640        -2.31075
   H      -22.30868        23.28168         0.27494
   H      -24.11957        24.68413         0.22396
   H      -25.22247        24.63646        -5.90721
   H      -27.71742        27.45914        -2.64114
   H      -28.81576        28.60240        -4.46834
   H      -29.17698        28.92895        -6.88235
   H      -27.95985        27.54768        -8.51885
   H      -26.37117        25.82749        -7.75266
*
