# ORCA input file
# SCF done       -200.271120271481          0.001610465207
! CAM-B3LYP def2-SVP def2/J RIJCOSX Grid4 TightSCF
%maxcore 5000
%tddft
    Mode sTDDFT
    Ethresh 5.0
    maxcore 5000
end

%pal
  nprocs 6
  end
* xyz 0 1
   C       -9.65080        -2.43185         8.03790
   C       -8.67681        -3.16523         7.39787
   C       -7.65541        -3.87187         8.06136
   N       -6.79651        -4.47154         8.53404
   C       -8.54552        -3.32502         6.00455
   N       -8.36149        -3.51159         4.88509
   C       -9.76657        -2.28058         9.48803
   C      -10.88110        -1.45432         9.76913
   C      -11.25848        -1.12665        11.04723
   C      -10.49964        -1.64232        12.10406
   C       -9.38881        -2.46686        11.81447
   C       -9.00567        -2.79614        10.51918
   S       -8.59361        -3.00033        13.26560
   C       -9.75117        -2.11986        14.22684
   C      -10.68435        -1.45935        13.50234
  Br       -9.61923        -2.15755        16.09839
   C      -11.51983        -1.05072         8.49776
   O      -12.50180        -0.34148         8.38398
   C      -10.72456        -1.68871         7.43335
   C      -11.00328        -1.59231         6.08336
   C      -12.06603        -0.88318         5.53620
   C      -12.33387        -0.86253         4.18012
   C      -13.41262        -0.20677         3.54192
   C      -13.46668        -0.39736         2.19215
   C      -12.42069        -1.20802         1.70159
   S      -11.36141        -1.71013         3.00162
   C      -12.20458        -1.62326         0.40022
   C      -13.02566        -1.40389        -0.73111
   C      -12.56433        -2.00855        -1.85857
   C      -11.33647        -2.70720        -1.69125
   S      -10.80740        -2.58125        -0.02500
   C      -10.66084        -3.36614        -2.68565
   C       -9.38733        -3.95922        -2.61302
   S       -8.41884        -3.87230        -1.16422
   C       -7.12157        -4.67896        -1.91554
   C       -7.39024        -5.02870        -3.20871
   N       -6.49421        -5.78620        -4.00485
   O       -6.00019        -4.93913        -5.07356
   O       -5.38971        -6.21725        -3.25851
   C       -8.69109        -4.63147        -3.62848
   N       -9.28756        -4.97103        -4.83950
   O       -8.53656        -5.63556        -5.75554
   O       -9.91933        -3.81126        -5.46186
   C      -10.61225        -4.05081        -6.57763
   C      -11.72890        -3.33107        -6.85453
   C      -12.53917        -3.36579        -8.02201
   C      -13.63254        -2.56134        -7.95326
   C      -13.74624        -1.84345        -6.73696
   S      -12.38876        -2.18114        -5.69503
   C      -14.76265        -1.00599        -6.31708
   C      -15.92682        -0.59802        -6.99781
   C      -16.73833         0.21534        -6.25848
   C      -16.26301         0.47740        -4.95554
   S      -14.72813        -0.31372        -4.70736
   C      -16.87407         1.23341        -3.96911
   C      -16.33688         1.34652        -2.69665
   C      -16.78752         2.04405        -1.59219
   C      -17.76441         3.08129        -1.41421
   C      -18.23620         3.96099        -2.36124
   C      -19.18521         4.96764        -2.09765
   N      -19.97209         5.79204        -1.95131
   C      -17.76489         4.05113        -3.68465
   N      -17.39512         4.21447        -4.76007
   C      -18.03180         3.18643         0.02243
   C      -17.11655         2.35502         0.71548
   C      -16.28681         1.64115        -0.27116
   O      -15.39693         0.83838        -0.04194
   C      -17.08435         2.26926         2.08534
   C      -18.00790         3.03235         2.80893
   C      -18.92764         3.84587         2.10831
   C      -18.95399         3.93920         0.72045
   S      -19.98743         4.69302         3.19332
   C      -19.18685         3.95643         4.55653
   C      -18.17954         3.11744         4.21815
  Br      -19.75951         4.36296         6.29631
   H      -12.11369        -0.49443        11.22799
   H       -8.15051        -3.42937        10.35277
   H      -11.47170        -0.86788        13.93278
   H      -10.35997        -2.11760         5.38807
   H      -12.72736        -0.33813         6.19404
   H      -14.11541         0.37829         4.10849
   H      -14.20922         0.02254         1.53686
   H      -13.92280        -0.81470        -0.66751
   H      -13.04853        -1.96210        -2.81795
   H      -11.15461        -3.40272        -3.64438
   H       -6.21421        -4.87523        -1.38105
   H       -5.34195        -5.46425        -5.55107
   H       -5.30118        -7.16593        -3.43112
   H       -7.64079        -5.23304        -5.83667
   H      -10.24278        -4.81858        -7.24815
   H      -12.29013        -3.99548        -8.85695
   H      -14.37069        -2.47438        -8.72992
   H      -16.13882        -0.90989        -8.00491
   H      -17.66563         0.63184        -6.60902
   H      -17.81246         1.70246        -4.22054
   H      -15.47070         0.72245        -2.48727
   H      -16.37083         1.63471         2.58766
   H      -19.67691         4.57263         0.23418
   H      -17.58199         2.58041         4.93221
*
