# ORCA input file
# SCF done       -198.353339044341          0.000624050733
! CAM-B3LYP def2-SVP def2/J RIJCOSX Grid4 TightSCF
%maxcore 5000
%tddft
    Mode sTDDFT
    Ethresh 5.0
    maxcore 5000
end

%pal
  nprocs 6
  end
* xyz 0 1
   C       -1.05902         3.42568         5.25555
   C       -1.04053         2.05985         5.07510
   C       -0.07629         1.20132         5.63618
   N        0.67628         0.44330         6.06071
   C       -1.96686         1.31261         4.32265
   N       -2.66648         0.61876         3.72976
   C       -0.08804         4.17664         6.05141
   C       -0.44379         5.54646         6.02326
   C        0.27802         6.51369         6.67631
   C        1.41147         6.11080         7.39224
   C        1.76019         4.74156         7.41302
   C        1.02698         3.76173         6.75291
   S        3.19703         4.46180         8.35150
   C        3.30607         6.16733         8.69725
   C        2.31994         6.90906         8.14117
  Br        4.71385         6.80798         9.76033
   C       -1.66020         5.71490         5.19708
   O       -2.23096         6.76552         4.97042
   C       -2.00798         4.36488         4.72296
   C       -3.06802         4.07692         3.88145
   C       -3.96147         5.00735         3.36994
   C       -4.98247         4.66457         2.49928
   C       -5.92096         5.53701         1.90831
   C       -6.80065         4.92170         1.06232
   C       -6.59763         3.53293         0.95012
   S       -5.26031         3.02623         1.95789
   C       -7.28784         2.62032         0.16679
   C       -8.34846         2.86126        -0.73225
   C       -8.78298         1.74262        -1.37967
   C       -8.09446         0.55696        -1.02627
   S       -6.87405         0.92573         0.17872
   C       -8.31593        -0.68845        -1.56215
   C       -7.65681        -1.88466        -1.24631
   O       -7.98372        -2.99345        -2.00157
   C       -7.22843        -3.99367        -1.53644
   C       -6.93305        -5.34268        -1.73855
   C       -5.96687        -5.63939        -0.78179
   O       -5.66271        -4.55306        -0.00773
   C       -6.42380        -3.54817        -0.47272
   C       -6.68839        -2.19844        -0.28183
   C       -5.28585        -6.86759        -0.55868
   S       -5.58284        -8.20828        -1.63231
   C       -4.45999        -9.20248        -0.75639
   C       -3.88205        -8.51757         0.27729
   C       -4.35799        -7.19094         0.41180
   C       -3.96028        -6.28897         1.53528
   C       -2.80404        -6.85820         2.35784
   C       -2.95337        -8.36192         2.55691
   C       -2.82203        -9.06631         1.20068
   O       -2.79130       -10.46332         1.30011
   C       -4.18871       -10.58477        -1.15950
   C       -3.02795       -10.86346        -1.88366
   C       -2.67961       -12.15198        -2.23575
   C       -3.47029       -13.22662        -1.84647
   C       -4.61723       -12.96906        -1.13248
   C       -4.99932       -11.65930        -0.80972
   N       -6.19520       -11.68555        -0.10456
   C       -6.92779       -10.56517         0.41970
   C       -6.62555       -12.96644         0.10281
   O       -7.64555       -13.27694         0.67022
   C       -5.58033       -13.91083        -0.48092
   C       -4.90370       -14.65314         0.69529
   C       -4.04042       -13.65448         1.47143
   O       -4.41997       -12.63874         2.01877
   N       -2.75108       -14.08001         1.41156
   C       -1.63003       -13.36618         1.96082
   C       -2.64082       -15.26786         0.69900
   C       -1.51010       -16.00465         0.41965
   C       -1.63951       -17.17761        -0.33427
   C       -2.90564       -17.57375        -0.76945
   C       -4.03904       -16.82918        -0.47953
   C       -3.90446       -15.67180         0.25537
   C       -0.43072       -17.93810        -0.63104
   C       -0.33669       -19.02570        -1.38654
   H       -0.01934         7.54993         6.63579
   H        1.33684         2.73122         6.79956
   H        2.23448         7.97471         8.25217
   H       -3.21462         3.04624         3.58178
   H       -3.85740         6.04632         3.64680
   H       -5.91548         6.59123         2.12082
   H       -7.57930         5.43152         0.52376
   H       -8.75403         3.84503        -0.88419
   H       -9.57636         1.73164        -2.10598
   H       -9.07028        -0.76823        -2.33340
   H       -7.33446        -6.02472        -2.45823
   H       -6.26222        -1.53445         0.43929
   H       -4.83593        -6.14756         2.17752
   H       -3.69560        -5.30357         1.14821
   H       -2.76900        -6.35204         3.32322
   H       -1.85895        -6.66348         1.84632
   H       -3.92723        -8.59420         2.99600
   H       -2.17911        -8.73826         3.22693
   H       -1.84057        -8.81312         0.77141
   H       -3.61120       -10.81519         1.68420
   H       -2.39036       -10.03826        -2.16300
   H       -1.77755       -12.32683        -2.80132
   H       -3.18725       -14.23939        -2.09054
   H       -6.29307        -9.95273         1.06015
   H       -7.74652       -10.97624         1.01071
   H       -7.33627        -9.95138        -0.38539
   H       -6.03372       -14.63889        -1.15630
   H       -5.68938       -15.06647         1.33534
   H       -1.96578       -12.37118         2.24428
   H       -0.85030       -13.26980         1.20507
   H       -1.23053       -13.88765         2.83346
   H       -0.53808       -15.69039         0.76779
   H       -3.01121       -18.48080        -1.34205
   H       -5.00890       -17.15427        -0.82520
   H        0.46876       -17.54152        -0.17586
   H       -1.18344       -19.47366        -1.87690
   H        0.60957       -19.51330        -1.54563
*
