# ORCA input file
# SCF done       -158.190828782707          0.000964354631
! CAM-B3LYP def2-SVP def2/J RIJCOSX Grid4 TightSCF
%maxcore 5000
%tddft
    Mode sTDDFT
    Ethresh 5.0
    maxcore 5000
end

%pal
  nprocs 6
  end
* xyz 0 1
   C       -4.43745        -1.37008        -3.16754
   C       -3.19919        -1.82336        -2.80400
   C       -2.65490        -3.05961        -3.21372
   N       -2.15570        -4.04458        -3.52549
   C       -2.30828        -1.12718        -1.95897
   N       -1.54072        -0.62765        -1.26725
   C       -5.41000        -2.07542        -3.98631
   C       -6.59441        -1.29814        -4.06801
   C       -7.66551        -1.66727        -4.84564
   C       -7.58206        -2.87485        -5.54739
   C       -6.42044        -3.67625        -5.40913
   C       -5.32562        -3.28820        -4.64757
   S       -6.54921        -5.14853        -6.31218
   C       -8.12463        -4.67769        -6.86711
   C       -8.54157        -3.47338        -6.40538
  Br       -9.07724        -5.80269        -8.01352
   C       -6.45197        -0.08796        -3.24238
   O       -7.28969         0.76467        -3.04534
   C       -5.04037        -0.10772        -2.75919
   C       -4.43407         0.95971        -2.20034
   C       -5.16917         2.11336        -1.72012
   N       -4.85595         3.32770        -2.11954
   N       -5.46710         4.39667        -1.69415
   C       -6.47652         4.36853        -0.84274
   C       -6.89924         3.10932        -0.32545
   C       -6.20700         1.94081        -0.76622
   N       -6.62967         0.83732        -0.15361
   S       -7.81023         1.24291         0.85607
   N       -7.83191         2.82623         0.58220
   C       -7.14770         5.56781        -0.41300
   C       -6.90411         6.82000        -0.83288
   C       -5.84691         7.16264        -1.82403
   C       -7.71265         7.99338        -0.31907
   N       -8.84580         7.63548         0.49640
   C       -8.69506         7.33535         1.81454
   C       -9.40385         6.37204         2.45218
   C       -9.22742         6.00259         3.80230
   C       -9.56763         4.76067         4.26531
   C       -9.31617         4.18957         5.53807
   C       -9.53249         2.84686         5.60262
   C       -9.96792         2.27908         4.38123
   S      -10.21187         3.52440         3.18338
   C      -10.05441         0.95086         4.01896
   C       -9.67072        -0.20436         4.73402
   C       -9.60387        -1.32886         3.96890
   C       -9.93266        -1.12724         2.60226
   S      -10.47222         0.52595         2.36386
   C       -9.77516        -2.02126         1.57822
   C      -10.00565        -1.77624         0.21154
   S      -10.69712        -0.29733        -0.44362
   C      -10.64820        -0.83981        -2.07325
   C      -10.11193        -2.10324        -2.14165
   C       -9.74396        -2.61435        -0.85840
   O       -9.18302        -3.83990        -0.96865
   C       -9.19385        -4.11616        -2.30084
   N       -8.60657        -5.31520        -2.74044
   O       -8.54377        -5.46820        -3.95351
   O       -8.18734        -6.09946        -1.91714
   C       -9.75554        -3.12240        -3.06136
   H       -8.53856        -1.03670        -4.91137
   H       -4.45278        -3.91742        -4.59327
   H       -9.48747        -3.03082        -6.66186
   H       -3.35961         0.99878        -2.08259
   H       -7.91609         5.36782         0.31990
   H       -5.93154         6.52247        -2.70045
   H       -4.86399         6.95810        -1.40194
   H       -5.90142         8.20806        -2.11825
   H       -8.07434         8.56927        -1.17865
   H       -7.05550         8.64776         0.26399
   H       -9.52378         7.05825         0.01300
   H       -7.95001         7.91986         2.33737
   H      -10.07637         5.75534         1.86803
   H       -8.71578         6.68001         4.47208
   H       -8.94855         4.78589         6.35491
   H       -9.36343         2.24470         6.47740
   H       -9.41541        -0.16653         5.77805
   H       -9.28988        -2.29267         4.32819
   H       -9.40445        -3.00883         1.81705
   H      -10.99392        -0.20230        -2.85913
   H       -9.90043        -3.15348        -4.11967
*
