# ORCA input file
# SCF done       -174.764979853164          0.000981373858
! CAM-B3LYP def2-SVP def2/J RIJCOSX Grid4 TightSCF
%maxcore 5000
%tddft
    Mode sTDDFT
    Ethresh 5.0
    maxcore 5000
end

%pal
  nprocs 6
  end
* xyz 0 1
   C      -10.76735        -4.32142         0.46504
   C      -10.72158        -3.75695         1.71650
   C      -11.84877        -3.57267         2.54423
   N      -12.71653        -3.38930         3.27459
   C       -9.58222        -3.25130         2.37111
   N       -8.72446        -2.79459         2.98618
   C      -11.99024        -4.79298        -0.18013
   C      -11.65828        -5.31006        -1.45477
   C      -12.59232        -5.83825        -2.31166
   C      -13.91829        -5.90344        -1.87271
   C      -14.24321        -5.37540        -0.60091
   C      -13.30372        -4.80433         0.24887
   S      -15.93266        -5.56546        -0.24763
   C      -16.16576        -6.37641        -1.77720
   C      -15.04271        -6.47893        -2.52575
  Br      -17.86981        -7.01362        -2.22385
   C      -10.20146        -5.21598        -1.64955
   O       -9.58848        -5.61123        -2.62631
   C       -9.66584        -4.57774        -0.44198
   C       -8.34363        -4.28157        -0.19805
   C       -7.20626        -4.45159        -0.99913
   S       -7.22435        -4.87560        -2.69615
   C       -5.56357        -4.49376        -2.83463
   C       -4.97651        -4.09256        -1.66928
   C       -3.53482        -3.73447        -1.53091
   C       -5.89628        -4.09976        -0.59094
   C       -5.50757        -3.78691         0.75001
   C       -6.05476        -4.33355         1.86134
   C       -5.81555        -3.87075         3.18087
   C       -6.61632        -4.27823         4.19538
   C       -6.67629        -3.68321         5.47877
   O       -7.76711        -3.97757         6.22876
   C       -5.92325        -2.75116         6.16890
   C       -4.71483        -1.92730         6.11303
   O       -3.85953        -1.83121         5.26890
   N       -4.74920        -1.21444         7.30715
   C       -5.85207        -1.47148         8.12646
   O       -6.05484        -0.94657         9.19086
   C       -6.61089        -2.47239         7.37760
   C       -7.77474        -3.22808         7.36684
   C       -8.93950        -3.25538         8.16954
   C      -10.02715        -3.93382         7.69518
   C      -11.33986        -3.97094         8.17628
   C      -12.32673        -4.57408         7.42559
   C      -13.72100        -4.63588         7.65978
   C      -14.43033        -5.24680         6.66716
   C      -13.63083        -5.71148         5.59927
   S      -11.95243        -5.35738         5.89904
   C      -13.99965        -6.35439         4.43287
   C      -15.28225        -6.71592         3.96896
   C      -15.27458        -7.33819         2.75745
   C      -13.98244        -7.49555         2.19221
   S      -12.77529        -6.83583         3.27479
   C      -13.68410        -8.03045         0.96675
   C      -12.41325        -8.11627         0.37311
   S      -10.89272        -7.67492         1.13728
   C       -9.94759        -8.00035        -0.26419
   C      -10.74475        -8.44237        -1.29342
   C      -12.12172        -8.50283        -0.92356
   O      -12.88747        -8.87770        -1.96837
   C      -12.01498        -9.05240        -3.00227
   N      -12.57376        -9.35984        -4.26468
   O      -11.80011        -9.66596        -5.14966
   O      -13.77976        -9.27274        -4.37814
   C      -10.70931        -8.81706        -2.66521
   H      -12.30551        -6.19905        -3.28731
   H      -13.60978        -4.41076         1.20309
   H      -15.00186        -6.96916        -3.48207
   H       -8.13466        -3.80779         0.75363
   H       -5.07997        -4.59733        -3.78747
   H       -3.02755        -3.83358        -2.48655
   H       -3.04846        -4.38415        -0.80492
   H       -3.43019        -2.70621        -1.18641
   H       -4.70418        -3.07096         0.86365
   H       -6.77123        -5.13907         1.75893
   H       -5.07528        -3.10135         3.34724
   H       -7.37286        -5.03106         4.01757
   H       -4.03510        -0.54682         7.56076
   H       -8.94763        -2.67087         9.07519
   H       -9.87132        -4.46865         6.76539
   H      -11.60431        -3.48226         9.10280
   H      -14.15940        -4.21374         8.54697
   H      -15.49864        -5.36968         6.67283
   H      -16.17109        -6.50280         4.53493
   H      -16.15399        -7.68211         2.24275
   H      -14.50013        -8.40488         0.36276
   H       -8.88786        -7.85509        -0.24380
   H       -9.86440        -8.87397        -3.31917
*
