# ORCA input file
# SCF done       -195.357608796255          0.000340168245
! CAM-B3LYP def2-SVP def2/J RIJCOSX Grid4 TightSCF
%maxcore 5000
%tddft
    Mode sTDDFT
    Ethresh 5.0
    maxcore 5000
end

%pal
  nprocs 6
  end
* xyz 0 1
   C       -3.16045        -2.71298        -2.83463
   C       -1.86972        -2.45620        -3.22990
   C       -0.74467        -3.17474        -2.77735
   N        0.21250        -3.71439        -2.44335
   C       -1.48109        -1.44035        -4.12552
   N       -1.08773        -0.63775        -4.84763
   C       -3.57399        -3.77356        -1.92429
   C       -4.97787        -3.70502        -1.74429
   C       -5.66696        -4.58194        -0.94366
   C       -4.93780        -5.58518        -0.29606
   C       -3.53582        -5.64617        -0.48018
   C       -2.83755        -4.75377        -1.28379
   S       -2.83063        -6.95871         0.41379
   C       -4.40696        -7.40284         1.01250
   C       -5.41087        -6.61037         0.56792
  Br       -4.57724        -8.86872         2.16915
   C       -5.51786        -2.57698        -2.52489
   O       -6.63175        -2.11184        -2.45135
   C       -4.35470        -2.02458        -3.27813
   C       -4.42720        -0.97403        -4.14338
   C       -5.62559        -0.52812        -4.75316
   O       -5.68207         0.74386        -5.24464
   C       -6.80108        -1.17320        -5.09106
   C       -7.48624        -2.47368        -5.10679
   O       -7.13186        -3.56482        -4.74558
   N       -8.69524        -2.19522        -5.73902
   C       -8.84838        -0.88560        -6.19140
   O       -9.80992        -0.46166        -6.77734
   C       -7.59745        -0.23738        -5.78955
   C       -6.87407         0.93950        -5.86194
   C       -7.19163         2.18013        -6.48083
   C       -6.34201         3.22829        -6.50236
   C       -6.66332         4.49588        -7.11434
   C       -7.94398         4.97239        -7.04179
   S       -8.18308         6.50851        -7.75614
   C       -6.51586         6.53546        -8.24513
   C       -5.79517         5.40621        -7.83145
   C       -4.43044         5.30863        -8.19737
   C       -3.63204         4.14911        -7.66400
   C       -3.14530         4.44018        -6.24088
   C       -3.83316         6.29160        -8.97812
   C       -2.38397         6.16485        -9.37375
   C       -2.18846         5.19357       -10.54486
   C       -4.56989         7.43005        -9.39509
   C       -4.18144         8.62687       -10.11305
   C       -5.18346         9.55513       -10.12384
   S       -6.65263         9.04979        -9.39932
   C       -5.90617         7.54388        -8.97094
   C       -2.97230         9.00437       -10.82789
   C       -2.35861         8.29060       -11.79749
   C       -1.26386         8.71279       -12.59335
   C       -0.74331         9.96942       -12.76722
   C        0.34951        10.28145       -13.61729
   C        0.63364        11.61058       -13.71535
   C       -0.21758        12.43385       -12.95191
   S       -1.37000        11.45787       -12.07100
   C       -0.22630        13.81898       -12.87920
   C        0.63730        14.72549       -13.51801
   C        0.33962        16.03915       -13.26995
   C       -0.76910        16.23133       -12.42902
   S       -1.42523        14.68229       -11.94229
   C       -1.31433        17.44403       -12.02959
   C       -2.42030        17.57597       -11.21503
   C       -2.98523        18.78390       -10.83221
   C       -4.11373        18.96056       -10.01122
   C       -4.45987        20.26668        -9.80350
   C       -3.61592        21.18863       -10.45480
   S       -2.36434        20.34082       -11.33953
   C       -3.69917        22.56825       -10.44735
   C       -4.66031        23.36673        -9.77523
   C       -4.49805        24.70012        -9.94829
   C       -3.38623        25.05626       -10.77830
   S       -2.56810        23.58060       -11.31670
   C       -2.97898        26.28581       -11.12797
   H       -6.73641        -4.50259        -0.83015
   H       -1.76923        -4.84176        -1.38943
   H       -6.44317        -6.74170         0.83639
   H       -3.53655        -0.43118        -4.42935
   H       -9.40026        -2.90327        -5.88723
   H       -8.15275         2.21093        -6.97150
   H       -5.39401         3.11877        -6.00035
   H       -8.76783         4.50201        -6.54127
   H       -2.76678         3.94217        -8.28607
   H       -4.25242         3.25252        -7.67960
   H       -2.42684         5.25706        -6.24935
   H       -2.66093         3.56203        -5.81964
   H       -3.96794         4.73502        -5.59315
   H       -1.78990         5.82937        -8.52327
   H       -2.01004         7.14712        -9.65622
   H       -2.27899         4.15743       -10.22975
   H       -1.20155         5.32908       -10.98122
   H       -2.93966         5.35981       -11.31320
   H       -5.13846        10.52369       -10.58387
   H       -2.64162        10.01396       -10.62527
   H       -2.71647         7.29429       -12.00809
   H       -0.79310         7.94018       -13.18925
   H        0.88593         9.50783       -14.13812
   H        1.41979        12.01644       -14.32628
   H        1.44990        14.39827       -14.14122
   H        0.88786        16.87118       -13.67561
   H       -0.83352        18.34163       -12.39793
   H       -2.89660        16.67659       -10.84443
   H       -4.64188        18.12035        -9.59574
   H       -5.29468        20.58113        -9.20369
   H       -5.44245        22.92423        -9.18425
   H       -5.12779        25.45797        -9.51754
   H       -3.50401        27.15710       -10.77846
   H       -2.12442        26.44014       -11.76057
*
