# ORCA input file
# SCF done       -186.683301408501          0.000789664060
! CAM-B3LYP def2-SVP def2/J RIJCOSX Grid4 TightSCF
%maxcore 5000
%tddft
    Mode sTDDFT
    Ethresh 5.0
    maxcore 5000
end

%pal
  nprocs 6
  end
* xyz 0 1
   C        0.23315         4.73043         3.63568
   C        0.86073         4.54809         4.83813
   C        0.33285         4.96364         6.07860
   N       -0.04639         5.27501         7.11614
   C        2.13438         3.96106         4.99224
   N        3.17607         3.51661         5.18152
   C       -1.02373         5.43308         3.42056
   C       -1.24641         5.55943         2.01867
   C       -2.34393         6.19951         1.51940
   C       -3.28735         6.75191         2.41440
   C       -3.07746         6.61978         3.81770
   C       -1.93234         5.95134         4.30613
   C       -4.02862         7.16937         4.70162
   C       -5.13297         7.82088         4.22436
   C       -5.33746         7.95248         2.84256
   C       -4.43443         7.42973         1.95702
   C       -0.14757         4.90827         1.28247
   O       -0.03063         4.80075         0.08214
   C        0.74930         4.34488         2.33213
   C        1.78567         3.52203         2.05707
   C        2.22911         3.23232         0.70336
   C        2.05052         1.99155         0.17210
   S        2.45594         1.87554        -1.49226
   C        2.95614         3.53790        -1.49091
   C        2.80621         4.15486        -0.24139
   C        3.29811         5.46661        -0.04355
   C        3.40715         5.98401         1.37060
   C        2.36420         7.02846         1.77719
   C        3.77968         6.18847        -1.12860
   C        4.18645         7.62758        -0.98178
   C        3.02304         8.54984        -1.36044
   C        3.87921         5.58209        -2.40512
   C        4.46013         6.07600        -3.63439
   C        4.51712         5.10555        -4.59267
   S        3.85692         3.59183        -4.12463
   C        3.50723         4.23569        -2.55173
   C        4.93761         7.40988        -3.93147
   C        6.05330         7.65231        -4.64949
   C        6.49838         8.95437        -5.00203
   S        8.01565         9.17708        -5.84706
   C        7.86403        10.91806        -5.91719
   C        6.66900        11.29292        -5.29968
   C        5.92450        10.19235        -4.79222
   S        4.47086        10.77562        -4.04626
   C        4.98830        12.40265        -4.47711
   N        6.09778        12.50810        -5.09523
   C        8.84413        11.71868        -6.51889
   C        8.73018        13.08098        -6.63102
   C        9.69713        13.89589        -7.21976
   C        9.56536        15.25935        -7.37315
   C       10.49955        16.14776        -7.95076
   C       10.08851        17.44782        -7.98797
   C        8.80234        17.65384        -7.44422
   S        8.13572        16.14348        -6.86843
   C        8.09713        18.84110        -7.36079
   C        8.50019        20.12393        -7.79078
   C        7.56470        21.09238        -7.59074
   C        6.36547        20.62941        -6.99111
   S        6.48320        18.90716        -6.67998
   C        5.26628        21.39440        -6.70230
   C        4.05979        20.96936        -6.12113
   S        3.70142        19.32975        -5.60264
   C        2.11560        19.71332        -5.05911
   C        1.84430        21.04682        -5.25788
   C        2.94086        21.74089        -5.85243
   O        2.64503        23.04457        -6.03823
   C        1.37557        23.19068        -5.57065
   N        0.79282        24.47648        -5.64108
   O       -0.34554        24.57883        -5.22061
   O        1.45274        25.37803        -6.11222
   C        0.83227        22.03028        -5.08626
   H       -2.48946         6.28543         0.45265
   H       -1.80331         5.86184         5.37323
   H       -3.86547         7.06687         5.76443
   H       -5.85531         8.23911         4.90914
   H       -6.21462         8.46960         2.48344
   H       -4.58714         7.52759         0.89213
   H        2.25974         2.95799         2.85176
   H        1.61854         1.14114         0.66402
   H        4.40635         6.40124         1.52033
   H        3.32712         5.12735         2.04448
   H        2.25954         7.04858         2.86081
   H        1.39565         6.80115         1.33954
   H        2.65398         8.02371         1.45422
   H        5.04383         7.82952        -1.62618
   H        4.49078         7.84308         0.04103
   H        2.65447         8.32452        -2.35812
   H        3.33964         9.59038        -1.33235
   H        2.19197         8.41818        -0.67354
   H        4.88179         5.22183        -5.59472
   H        4.33780         8.24423        -3.60437
   H        6.68687         6.83555        -4.96609
   H        4.37260        13.23990        -4.21432
   H        9.71801        11.21585        -6.91149
   H        7.83617        13.55175        -6.24398
   H       10.60893        13.44201        -7.58706
   H       11.44724        15.79986        -8.32291
   H       10.67136        18.25498        -8.39368
   H        9.46327        20.29751        -8.23596
   H        7.69039        22.12694        -7.85634
   H        5.31018        22.44728        -6.94828
   H        1.49522        18.95068        -4.63753
   H       -0.14871        21.91988        -4.67320
*
