# ORCA input file
# SCF done       -179.809937827973          0.000581142552
! CAM-B3LYP def2-SVP def2/J RIJCOSX Grid4 TightSCF
%maxcore 5000
%tddft
    Mode sTDDFT
    Ethresh 5.0
    maxcore 5000
end

%pal
  nprocs 6
  end
* xyz 0 1
   C       -9.47386         9.36675        -9.18395
   C       -8.18604         9.28036        -9.65040
   C       -7.79054         9.65329       -10.95173
   N       -7.40629         9.93942       -11.99506
   C       -7.07596         8.80527        -8.92209
   N       -6.12233         8.42882        -8.40352
   C      -10.61847         9.84548        -9.95538
   C      -11.77865         9.76444        -9.14605
   C      -13.02200        10.14550        -9.58702
   C      -13.12808        10.63129       -10.89470
   C      -11.96561        10.70783       -11.69754
   C      -10.70747        10.32239       -11.24936
   S      -12.32113        11.33523       -13.27819
   C      -14.00350        11.48357       -12.84512
   C      -14.28675        11.08516       -11.58220
  Br      -15.22696        12.14952       -14.10066
   C      -11.40587         9.22710        -7.82609
   O      -12.16229         9.01464        -6.89285
   C       -9.96032         9.00073        -7.87010
   C       -9.20263         8.52956        -6.82492
   C       -9.58935         8.15547        -5.53641
   S      -11.19937         8.15883        -4.83082
   C      -10.63906         7.54815        -3.30530
   C       -9.25815         7.34791        -3.32859
   C       -8.68774         7.69287        -4.57546
   S       -6.98399         7.42835        -4.54288
   C       -7.18335         6.88293        -2.88014
   N       -8.36668         6.89520        -2.40456
   C      -11.56050         7.30582        -2.25336
   C      -11.19507         6.82890        -1.04158
   C      -12.07126         6.54130         0.06010
   C      -13.34371         6.11286         0.01907
   C      -14.11023         5.80485        -1.22627
   C      -14.11928         5.92978         1.30485
   N      -15.08006         7.00022         1.45827
   C      -16.30302         6.98522         0.90675
   C      -17.08609         8.09510         0.77425
   C      -18.35192         8.09444         0.17648
   C      -19.09391         9.23601        -0.01689
   C      -20.28642         9.39427        -0.75629
   C      -20.70629        10.68867        -0.87197
   C      -19.87896        11.61385        -0.20246
   S      -18.56360        10.79919         0.59321
   C      -19.95067        12.99889        -0.17186
   C      -20.70978        13.88546        -0.95386
   C      -20.35232        15.19489        -0.78862
   C      -19.30077        15.40718         0.13177
   S      -18.82837        13.88911         0.83321
   C      -18.78632        16.65060         0.48056
   C      -17.79520        16.99107         1.38685
   C      -16.84409        16.24962         2.08142
   C      -16.20680        14.99650         1.85904
   C      -16.06402        14.33941         0.64794
   C      -15.46429        13.07921         0.50325
   N      -15.01621        12.03123         0.34344
   C      -16.44270        14.92016        -0.57549
   N      -16.72260        15.38051        -1.59044
   C      -15.54922        14.59836         3.10468
   C      -15.61490        15.68223         4.01195
   C      -16.36730        16.78874         3.37357
   O      -16.57671        17.89126         3.83522
   C      -15.06693        15.62850         5.26801
   C      -14.43808        14.43757         5.65470
   C      -14.39081        13.35875         4.74609
   C      -14.93281        13.41900         3.46629
   S      -13.58311        11.98015         5.43460
   C      -13.32149        12.86621         6.91425
   C      -13.81266        14.12609         6.89514
  Br      -12.42627        12.03697         8.34188
   H      -13.88500        10.07256        -8.94407
   H       -9.85380        10.40278       -11.90097
   H      -15.27089        11.11046       -11.15120
   H       -8.13704         8.42251        -6.99277
   H       -6.32461         6.56394        -2.32292
   H      -12.58516         7.56757        -2.46964
   H      -10.13873         6.68116        -0.85757
   H      -11.60600         6.64039         1.03425
   H      -13.43827         5.54966        -2.04123
   H      -14.71404         6.66001        -1.53357
   H      -14.78548         4.96755        -1.05561
   H      -13.44953         5.94347         2.16795
   H      -14.66239         4.98065         1.29560
   H      -14.69285         7.91119         1.66736
   H      -16.66702         6.01624         0.59131
   H      -16.69392         9.04811         1.10467
   H      -18.75040         7.16270        -0.20359
   H      -20.78524         8.55299        -1.20517
   H      -21.58073        10.99947        -1.41488
   H      -21.45939        13.54275        -1.64445
   H      -20.79451        16.01451        -1.32639
   H      -19.31221        17.48276         0.02794
   H      -17.80936        18.03117         1.70291
   H      -15.12258        16.47296         5.93693
   H      -14.87413        12.56897         2.80747
   H      -13.74059        14.81100         7.72033
*
