# ORCA input file
# SCF done       -176.456531885488          0.000733156059
! CAM-B3LYP def2-SVP def2/J RIJCOSX Grid4 TightSCF
%maxcore 5000
%tddft
    Mode sTDDFT
    Ethresh 5.0
    maxcore 5000
end

%pal
  nprocs 6
  end
* xyz 0 1
   C       -3.84857         1.79740        -8.46708
   C       -4.19511         0.46937        -8.60484
   C       -3.85422        -0.32395        -9.71570
   N       -3.61091        -1.02536       -10.59365
   C       -4.92468        -0.29252        -7.67302
   N       -5.50923        -0.99369        -6.97371
   C       -3.07730         2.56463        -9.44647
   C       -2.90074         3.87830        -8.95046
   C       -2.22144         4.84844        -9.64290
   C       -1.68995         4.50714       -10.89226
   C       -1.87120         3.19379       -11.37992
   C       -2.55799         2.21027       -10.67581
   S       -1.14156         2.98690       -12.94475
   C       -0.60853         4.64683       -12.91844
   C       -0.95885         5.32289       -11.79971
  Br        0.35302         5.33421       -14.37643
   C       -3.56246         3.99102        -7.63147
   O       -3.59336         4.98737        -6.93219
   C       -4.15839         2.67082        -7.37175
   C       -4.92438         2.36152        -6.25581
   C       -5.22419         3.24502        -5.23487
   C       -6.04679         2.92196        -4.16168
   C       -6.44067         3.77715        -3.12019
   C       -7.30552         3.20163        -2.22246
   C       -7.61544         1.86872        -2.52057
   S       -6.78143         1.34818        -3.96103
   C       -8.48910         1.01924        -1.83297
   C       -9.30726         1.33224        -0.74238
   C      -10.10004         0.28485        -0.33282
   C       -9.92100        -0.88684        -1.07400
   S       -8.71776        -0.63873        -2.31621
   C      -10.60231        -2.09468        -0.90118
   C      -10.35439        -3.25001        -1.59565
   C      -11.09076        -4.42869        -1.44214
   C      -10.85378        -5.66561        -2.04907
   C      -11.76751        -6.63997        -1.71615
   C      -12.76793        -6.19485        -0.84649
   S      -12.51235        -4.51766        -0.43183
   C      -13.87230        -6.89376        -0.35644
   C      -14.21494        -8.23946        -0.54840
   C      -15.39746        -8.59702         0.04482
   C      -16.05138        -7.54808         0.72195
   S      -15.08516        -6.09073         0.60461
   C      -17.28133        -7.64194         1.34603
   C      -18.01127        -6.62995         1.96856
   S      -19.62255        -7.01887         2.58410
   C      -19.84521        -5.39260         3.07539
   C      -18.72590        -4.59264         2.79341
   C      -17.70355        -5.27999         2.17885
   C      -18.96462        -3.16695         3.23136
   C      -17.97470        -2.74675         4.32148
   C      -18.90042        -2.20461         2.04223
   C      -20.36828        -3.27917         3.77711
   C      -20.83856        -4.59351         3.67063
   S      -22.43638        -4.76223         4.27184
   C      -22.48385        -3.05321         4.66800
   C      -21.29427        -2.41681         4.33893
   C      -23.66917        -2.51723         5.24032
   C      -23.83456        -1.22143         5.58132
   C      -25.02403        -0.63591         6.14877
   C      -26.20246        -1.34491         6.40517
   C      -27.29509        -0.69886         6.94304
   F      -28.41519        -1.41225         7.17591
   C      -27.28815         0.65148         7.25182
   C      -26.13198         1.37171         7.00705
   C      -25.03562         0.73046         6.46872
   F      -23.92288         1.46214         6.24135
   H       -2.10430         5.84090        -9.23660
   H       -2.66935         1.22418       -11.09430
   H       -0.71488         6.35398       -11.61944
   H       -5.33795         1.36326        -6.18093
   H       -4.82423         4.24801        -5.27221
   H       -6.08897         4.79164        -3.06098
   H       -7.71281         3.71058        -1.36744
   H       -9.31582         2.30669        -0.28906
   H      -10.80020         0.34024         0.48209
   H      -11.38579        -2.09957        -0.15267
   H       -9.54203        -3.27098        -2.31057
   H      -10.02254        -5.81989        -2.71391
   H      -11.73823        -7.64666        -2.09219
   H      -13.59469        -8.91344        -1.11108
   H      -15.81997        -9.58529         0.00153
   H      -17.74642        -8.61925         1.31762
   H      -16.76781        -4.84363         1.88577
   H      -16.96145        -2.75575         3.92791
   H      -18.02777        -3.43099         5.16528
   H      -18.20814        -1.74408         4.67069
   H      -17.89928        -2.20280         1.61862
   H      -19.14874        -1.19625         2.36363
   H      -19.60483        -2.50826         1.27112
   H      -21.12873        -1.36844         4.50469
   H      -24.46856        -3.22861         5.39266
   H      -23.01752        -0.53211         5.42520
   H      -26.27482        -2.39711         6.18586
   H      -28.16496         1.11735         7.67003
   H      -26.07326         2.42529         7.22894
*
