# ORCA input file
# SCF done       -189.159391416333          0.000809851233
! CAM-B3LYP def2-SVP def2/J RIJCOSX Grid4 TightSCF
%maxcore 5000
%tddft
    Mode sTDDFT
    Ethresh 5.0
    maxcore 5000
end

%pal
  nprocs 6
  end
* xyz 0 1
   C       -3.00293        -1.80968        -8.82830
   C       -3.25208        -3.13556        -8.54106
   C       -2.45393        -4.20322        -8.99216
   N       -1.84361        -5.11816        -9.32629
   C       -4.32555        -3.62391        -7.77402
   N       -5.16517        -4.11757        -7.16276
   C       -1.89277        -1.32840        -9.65230
   C       -1.98873         0.07953        -9.75768
   C       -1.08966         0.83452       -10.46745
   C       -0.03893         0.16689       -11.10767
   C        0.04935        -1.23862       -10.99761
   C       -0.86315        -2.00300       -10.27802
   S        1.42356        -1.86184       -11.86201
   C        1.85129        -0.24477       -12.35322
   C        1.01268         0.71313       -11.89448
  Br        3.36966         0.02750       -13.42246
   C       -3.16964         0.54301        -8.99573
   O       -3.53831         1.69850        -8.88806
   C       -3.76757        -0.66875        -8.41234
   C       -4.87875        -0.67143        -7.58030
   C       -5.60866         0.45522        -7.24448
   C       -6.71148         0.43623        -6.40055
   C       -7.53245         1.53113        -6.07875
   C       -8.57346         1.22114        -5.24209
   C       -8.60263        -0.12832        -4.86161
   S       -7.28003        -1.00394        -5.59103
   C       -9.54117        -0.76177        -4.04470
   C      -10.71818        -0.22028        -3.51024
   C      -11.46995        -1.12762        -2.80450
   C      -10.91178        -2.41074        -2.75094
   S       -9.38126        -2.43883        -3.59743
   C      -11.48204        -3.54322        -2.17679
   C      -10.93655        -4.80460        -2.21220
   C      -11.58148        -5.94629        -1.74504
   C      -11.14678        -7.27429        -1.86663
   C      -12.05043        -8.20435        -1.42032
   C      -13.23348        -7.64180        -0.91613
   S      -13.15989        -5.89358        -0.99585
   C      -14.38034        -8.29395        -0.48733
   C      -14.66495        -9.67528        -0.56251
   C      -15.94484        -9.98710        -0.22554
   C      -16.75335        -8.87119         0.13140
   S      -15.76545        -7.41256         0.10756
   C      -18.07693        -8.95465         0.45140
   C      -19.03685        -7.95846         0.79760
   C      -20.06328        -8.24267         1.69512
   C      -20.38893        -9.50473         2.40628
   N      -20.76169        -7.09853         1.91554
   C      -20.25930        -6.07594         1.18118
   C      -20.87184        -4.72351         1.19943
   C      -19.18773        -6.56524         0.43768
   C      -18.54783        -5.78742        -0.56666
   C      -17.80363        -6.26128        -1.59944
   C      -17.14414        -5.37545        -2.47644
   C      -16.09561        -5.56574        -3.33237
   C      -15.24754        -6.68964        -3.66567
   C      -15.50695        -8.03469        -3.56237
   C      -14.54995        -9.04478        -3.79170
   N      -13.82211        -9.92645        -3.90631
   C      -16.73789        -8.64557        -3.26310
   N      -17.69696        -9.24884        -3.06869
   C      -14.01850        -6.14525        -4.24509
   C      -14.17459        -4.75052        -4.43976
   C      -15.47898        -4.33756        -3.89993
   O      -15.94610        -3.21865        -3.87156
   C      -13.20736        -3.96475        -5.01655
   C      -12.00873        -4.57630        -5.39551
   C      -11.84276        -5.96139        -5.15959
   C      -12.83512        -6.76170        -4.60828
   S      -10.25976        -6.49888        -5.63267
   C       -9.85156        -4.88444        -6.15518
   C      -10.85579        -3.99010        -5.98157
  Br       -8.13717        -4.52865        -6.82865
   H       -1.19150         1.90671       -10.52838
   H       -0.74868        -3.07245       -10.22458
   H        1.12853         1.76169       -12.09984
   H       -5.20712        -1.61635        -7.16478
   H       -5.32321         1.40858        -7.66536
   H       -7.34259         2.51195        -6.47656
   H       -9.30161         1.93256        -4.89624
   H      -11.00127         0.80469        -3.66633
   H      -12.41413        -0.90260        -2.34100
   H      -12.44895        -3.41161        -1.70643
   H       -9.96453        -4.94314        -2.66831
   H      -10.19332        -7.51746        -2.30094
   H      -11.89414        -9.26665        -1.46113
   H      -13.93450       -10.38817        -0.89843
   H      -16.35495       -10.98045        -0.25825
   H      -18.45253        -9.96929         0.52322
   H      -19.61398        -9.75585         3.13086
   H      -20.46648       -10.33181         1.70220
   H      -21.33548        -9.40942         2.93352
   H      -21.55220        -7.02358         2.53741
   H      -21.59534        -4.64589         2.00798
   H      -21.38336        -4.51633         0.25920
   H      -20.11022        -3.95866         1.34049
   H      -18.69749        -4.71704        -0.49039
   H      -17.70873        -7.32254        -1.73182
   H      -17.43693        -4.33078        -2.39713
   H      -13.36710        -2.90781        -5.16189
   H      -12.65745        -7.81401        -4.46606
   H      -10.78238        -2.95394        -6.25615
*
