# ORCA input file
# SCF done       -187.604566983035          0.000634212567
! CAM-B3LYP def2-SVP def2/J RIJCOSX Grid4 TightSCF
%maxcore 5000
%tddft
    Mode sTDDFT
    Ethresh 5.0
    maxcore 5000
end

%pal
  nprocs 6
  end
* xyz 0 1
   C       -7.04574        -1.70608         1.00107
   C       -6.05584        -1.84556         1.93746
   C       -5.88470        -2.99190         2.74203
   N       -5.69388        -3.89903         3.41884
   C       -5.09997        -0.85790         2.25724
   N       -4.30983        -0.09344         2.58845
   C       -8.10567        -2.66876         0.73351
   C       -9.02840        -2.09087        -0.17237
   C      -10.14729        -2.75503        -0.61304
   C      -10.36565        -4.05280        -0.13932
   C       -9.43364        -4.62525         0.75963
   C       -8.30333        -3.95316         1.20683
   S       -9.88765        -6.24144         1.20769
   C      -11.30454        -6.12735         0.19795
   C      -11.43321        -4.94096        -0.44281
  Br      -12.47896        -7.58492         0.08381
   C       -8.57176        -0.73879        -0.55279
   O       -9.11106         0.00429        -1.34309
   C       -7.28516        -0.54142         0.16469
   C       -6.41231         0.47943        -0.05304
   C       -6.62405         1.63061        -0.88394
   C       -5.61848         1.96786        -1.75837
   S       -6.06820         3.10561        -2.94677
   C       -7.65031         3.23620        -2.23103
   C       -7.80226         2.44141        -1.08900
   C       -8.97906         2.57421        -0.31725
   C       -8.98010         2.04772         1.09543
   C       -8.83015         3.20868         2.08470
   C      -10.05608         3.30161        -0.81261
   C      -11.38198         3.25737        -0.09820
   C      -12.35220         2.35361        -0.86286
   C       -9.93687         4.02305        -2.02768
   C      -10.87993         4.84319        -2.76162
   C      -10.31334         5.39422        -3.87480
   S       -8.66309         5.00051        -4.11851
   C       -8.69695         4.01486        -2.69173
   C      -12.26599         5.13433        -2.45112
   C      -13.21413         5.30356        -3.38718
   C      -14.59624         5.63860        -3.13594
   C      -15.43461         5.92113        -4.21240
   C      -16.77002         6.24910        -4.04248
   N      -17.49653         6.49130        -5.25689
   O      -16.85792         6.88394        -6.21464
   O      -18.69581         6.28438        -5.28590
   C      -17.35231         6.33193        -2.74935
   C      -16.48692         6.02952        -1.67843
   C      -15.17139         5.69153        -1.85587
   C      -18.70039         6.74564        -2.55091
   C      -19.42839         6.89136        -1.40155
   C      -20.78623         7.32690        -1.39862
   C      -21.36271         7.40014        -0.17189
   C      -20.50102         7.02966         0.88805
   S      -18.92997         6.58711         0.25684
   C      -20.77134         6.99515         2.23807
   C      -21.98362         7.31869         2.89455
   C      -21.93029         7.18403         4.24497
   C      -20.67166         6.74784         4.74133
   S      -19.55706         6.51118         3.40749
   C      -20.35694         6.54236         6.05587
   C      -19.12277         6.11897         6.58216
   S      -17.68796         5.74732         5.64105
   C      -16.73583         5.35090         7.01424
   C      -17.46805         5.49024         8.16991
   C      -18.80509         5.92066         7.91532
   O      -19.49885         6.04820         9.06491
   C      -18.62283         5.70534        10.04838
   N      -19.08746         5.74799        11.38571
   O      -18.28519         5.43798        12.24589
   O      -20.23502         6.08495        11.57815
   C      -17.38322         5.35848         9.58357
   H      -10.83178        -2.28844        -1.30411
   H       -7.61944        -4.43392         1.88610
   H      -12.24554        -4.70151        -1.10443
   H       -5.40322         0.37779         0.32865
   H       -4.64856         1.51053        -1.81285
   H       -8.13183         1.38790         1.24802
   H       -9.88155         1.47213         1.31031
   H       -7.88883         3.72398         1.90690
   H       -8.82620         2.83049         3.10455
   H       -9.63448         3.93239         1.98491
   H      -11.79126         4.26069         0.01215
   H      -11.26801         2.85738         0.90489
   H      -12.55156         2.74097        -1.85844
   H      -13.29581         2.27084        -0.32746
   H      -11.91749         1.36184        -0.96495
   H      -10.78526         6.06854        -4.56241
   H      -12.52396         5.25492        -1.41247
   H      -12.95437         5.17788        -4.42999
   H      -15.04796         5.88188        -5.22086
   H      -16.87418         6.06451        -0.67441
   H      -14.57652         5.45648        -0.98757
   H      -19.26143         6.97819        -3.44600
   H      -21.28750         7.56654        -2.31956
   H      -22.37775         7.70772         0.00343
   H      -22.85417         7.63880         2.35113
   H      -22.75036         7.38276         4.91179
   H      -21.12964         6.72285         6.79172
   H      -15.71748         5.04710         6.89015
   H      -16.54800         5.05743        10.18107
*
