# ORCA input file
# SCF done       -214.570711650263          0.000855788416
! CAM-B3LYP def2-SVP def2/J RIJCOSX Grid4 TightSCF
%maxcore 5000
%tddft
    Mode sTDDFT
    Ethresh 5.0
    maxcore 5000
end

%pal
  nprocs 6
  end
* xyz 0 1
   C       -6.47250         6.01106        -4.13283
   C       -5.35687         5.29940        -4.48860
   C       -4.63646         5.50303        -5.68361
   N       -4.01186         5.62994        -6.63861
   C       -4.80397         4.24714        -3.72895
   N       -4.31779         3.36791        -3.17306
   C       -7.14022         7.01999        -4.94322
   C       -8.34637         7.39855        -4.30283
   C       -9.20873         8.32452        -4.83727
   C       -8.86657         8.90447        -6.06322
   C       -7.65562         8.52640        -6.69181
   C       -6.78266         7.59133        -6.15128
   S       -7.42468         9.36970        -8.19362
   C       -8.93725        10.20552        -7.96078
   C       -9.58397         9.87171        -6.81863
  Br       -9.52206        11.43565        -9.25003
   C       -8.48211         6.66676        -3.02642
   O       -9.36136         6.80131        -2.20453
   C       -7.26357         5.81694        -2.93076
   C       -6.90942         5.12078        -1.81998
   C       -7.75843         4.90176        -0.67915
   C       -7.25641         5.20056         0.56126
   S       -8.40941         5.15476         1.81826
   C       -9.62055         4.61527         0.69130
   C       -9.14043         4.48309        -0.61915
   C       -9.99073         3.93248        -1.61026
   C       -9.41379         3.53217        -2.94339
   C       -8.37250         2.42283        -2.78381
   C      -11.32421         3.67746        -1.30919
   C      -12.29496         3.23287        -2.37282
   C      -12.30905         1.71253        -2.55355
   C      -11.81056         3.84793         0.00907
   C      -13.12528         3.62764         0.56580
   C      -13.17395         3.93953         1.88885
   S      -11.68187         4.47699         2.55844
   C      -10.93369         4.31178         1.00321
   C      -14.30783         3.09923        -0.10367
   C      -15.53246         3.60541         0.06224
   C      -16.69820         3.08078        -0.63958
   C      -16.62308         2.81407        -1.97159
   S      -18.09896         2.29040        -2.68528
   C      -18.87774         2.40543        -1.13914
   C      -18.01885         2.83063        -0.11496
   C      -18.50740         2.88534         1.21342
   C      -17.51940         3.17942         2.31425
   C      -17.48223         4.65265         2.72582
   C      -19.84260         2.60828         1.47746
   C      -20.42224         2.77838         2.85469
   C      -21.17115         4.11119         2.96033
   C      -20.70711         2.18074         0.43754
   C      -22.07277         1.69940         0.47550
   C      -22.48980         1.27829        -0.75704
   S      -21.33239         1.44157        -2.01086
   C      -20.19200         2.07023        -0.86346
   C      -22.98127         1.58909         1.59515
   C      -23.83509         0.54688         1.73189
   C      -24.78327         0.42568         2.77155
   C      -25.62302        -0.64411         2.90897
   C      -26.60602        -0.85053         3.91251
   C      -27.29743        -2.01420         3.79192
   C      -26.90591        -2.80565         2.68482
   S      -25.62280        -2.01047         1.79678
   C      -27.39719        -4.03080         2.29552
   C      -28.38798        -4.82300         2.92420
   C      -28.61726        -6.00969         2.30699
   C      -27.81627        -6.24354         1.15181
   S      -26.78824        -4.84817         0.86591
   C      -27.87415        -7.35994         0.37094
   C      -27.08998        -7.70657        -0.75988
   S      -27.83393        -8.81178        -1.91849
   C      -25.82887        -7.38662        -1.20255
   C      -24.58560        -6.70262        -0.69869
   N      -23.95927        -7.51650         0.33220
   C      -24.23952        -7.15905         1.70795
   C      -23.59359        -5.85900         2.19449
   O      -23.74138        -6.63603        -1.83988
   C      -24.10300        -7.60164        -2.80864
   O      -23.27325        -8.72360        -2.78201
   C      -25.50011        -7.98775        -2.43784
   C      -26.46523        -8.78200        -2.95904
   H      -10.12042         8.59072        -4.32564
   H       -5.86977         7.33940        -6.66475
   H      -10.52789        10.28939        -6.51931
   H       -5.88362         4.78998        -1.71186
   H       -6.26065         5.54042         0.77510
   H       -8.95732         4.38750        -3.44215
   H      -10.19502         3.16673        -3.60382
   H       -7.49869         2.76929        -2.23729
   H       -8.04338         2.07713        -3.76155
   H       -8.79863         1.58036        -2.24336
   H      -12.05723         3.71374        -3.32305
   H      -13.28963         3.57918        -2.09039
   H      -11.36699         1.35962        -2.96511
   H      -13.10942         1.41905        -3.23027
   H      -12.45819         1.21226        -1.59908
   H      -14.02233         3.84228         2.53798
   H      -14.18339         2.20896        -0.70181
   H      -15.67358         4.48937         0.66714
   H      -15.76548         2.94204        -2.60311
   H      -16.53021         2.87831         1.96556
   H      -17.74192         2.56771         3.19038
   H      -17.41614         5.29679         1.85162
   H      -16.62233         4.84361         3.36534
   H      -18.37726         4.92560         3.27681
   H      -19.64543         2.75749         3.61647
   H      -21.10168         1.94960         3.06093
   H      -20.48194         4.94494         2.85311
   H      -21.66350         4.19402         3.92749
   H      -21.91730         4.20670         2.17501
   H      -23.46403         0.90416        -1.00445
   H      -23.01743         2.38260         2.32412
   H      -23.79114        -0.27278         1.02606
   H      -24.85557         1.22170         3.50114
   H      -26.76523        -0.12508         4.69110
   H      -28.07701        -2.32904         4.46246
   H      -28.89326        -4.49518         3.81502
   H      -29.32639        -6.74546         2.64314
   H      -28.66429        -8.06185         0.60846
   H      -24.75145        -5.66232        -0.37837
   H      -22.95859        -7.52504         0.16522
   H      -23.88090        -7.99094         2.32176
   H      -25.32410        -7.10652         1.82030
   H      -22.51131        -5.91494         2.09417
   H      -23.83749        -5.69510         3.24106
   H      -23.94895        -5.00437         1.62365
   H      -24.03668        -7.10268        -3.79262
   H      -22.35665        -8.42400        -2.77452
   H      -26.46291        -9.35108        -3.86582
*
