# ORCA input file
# SCF done       -168.353242902942          0.000904839519
! CAM-B3LYP def2-SVP def2/J RIJCOSX Grid4 TightSCF
%maxcore 5000
%tddft
    Mode sTDDFT
    Ethresh 5.0
    maxcore 5000
end

%pal
  nprocs 6
  end
* xyz 0 1
   C       -7.93089        -0.19449        -3.91041
   C       -7.57106         1.05440        -4.36716
   C       -6.49244         1.29492        -5.24126
   N       -5.63202         1.56370        -5.95375
   C       -8.18596         2.27191        -4.02084
   N       -8.62077         3.31047        -3.78149
   C       -7.23865        -1.43500        -4.24277
   C       -7.81984        -2.49031        -3.50013
   C       -7.37768        -3.78669        -3.58152
   C       -6.31748        -4.06136        -4.45311
   C       -5.74751        -3.00275        -5.19766
   C       -6.18819        -1.68810        -5.10571
   S       -4.45138        -3.56128        -6.21285
   C       -4.69135        -5.18691        -5.62997
   C       -5.68908        -5.30785        -4.72272
  Br       -3.60211        -6.57155        -6.27466
   C       -8.90950        -1.95434        -2.65256
   O       -9.48555        -2.56082        -1.77737
   C       -9.02779        -0.52359        -3.02526
   C       -9.96663         0.38553        -2.60496
   C      -11.17295         0.15984        -1.90812
   C      -11.90554         1.20546        -1.35374
   O      -13.05204         0.99124        -0.64189
   C      -13.45013        -0.30868        -0.51847
   C      -12.71600        -1.37399        -1.11059
   C      -13.27016        -2.58726        -0.86951
   S      -14.70212        -2.43935         0.08303
   C      -14.54898        -0.72705         0.15570
   O      -11.59585        -1.14327        -1.84352
   C      -11.55406         2.58573        -1.44142
   C      -12.23168         3.56067        -0.78764
   C      -11.91016         4.94052        -0.95322
   C      -12.47970         5.96703        -0.29581
   C      -13.51146         5.80532         0.77922
   C      -12.08708         7.38065        -0.62697
   N      -13.15946         8.07821        -1.31379
   C      -14.13558         7.45740        -2.00529
   C      -15.00059         8.07512        -2.85238
   C      -16.09844         7.45674        -3.48838
   C      -16.67906         6.23909        -3.24678
   C      -17.81502         5.73309        -3.93036
   C      -18.29850         4.55568        -3.45258
   C      -17.57633         4.04111        -2.35020
   S      -16.22482         5.09434        -1.98168
   C      -17.86289         2.92364        -1.59906
   C      -18.95983         2.04128        -1.73228
   C      -19.03363         1.09510        -0.76160
   C      -18.00534         1.16173         0.22251
   S      -16.89079         2.45520        -0.21243
   C      -17.90947         0.30884         1.28404
   C      -16.99402         0.26764         2.37160
   S      -16.69726        -1.31327         3.07776
   C      -15.58899        -0.64691         4.20225
   C      -15.46928         0.70538         4.08169
   C      -16.27726         1.23828         3.04689
   C      -16.38301         2.71396         2.83168
   C      -15.91218         3.47060         4.06983
   C      -14.50860         2.98167         4.45358
   C      -13.91404         3.90085         5.50954
   O      -13.76830         3.61661         6.66072
   O      -13.56040         5.11790         5.04802
   C      -14.60368         1.54671         4.96877
   H       -7.83709        -4.56680        -2.99502
   H       -5.71712        -0.91760        -5.69249
   H       -5.97139        -6.23635        -4.26089
   H       -9.78533         1.41178        -2.87342
   H      -12.91717        -3.54415        -1.19083
   H      -15.26533        -0.12835         0.67728
   H      -10.72020         2.86687        -2.06407
   H      -13.05050         3.29063        -0.13832
   H      -11.14822         5.15455        -1.69193
   H      -14.25935         5.06527         0.50302
   H      -14.01461         6.74955         0.97046
   H      -13.02645         5.47802         1.70012
   H      -11.18126         7.37968        -1.24819
   H      -11.86577         7.93192         0.29538
   H      -13.00499         9.05892        -1.49950
   H      -14.20285         6.39544        -1.83305
   H      -14.84680         9.12339        -3.07464
   H      -16.58540         8.04345        -4.25795
   H      -18.25071         6.27458        -4.75223
   H      -19.16278         4.05221        -3.84689
   H      -19.67191         2.14335        -2.53159
   H      -19.80912         0.35250        -0.69539
   H      -18.61153        -0.51680         1.26641
   H      -15.09232        -1.29052         4.90054
   H      -17.41466         2.98032         2.59466
   H      -15.76613         3.01011         1.97740
   H      -16.59066         3.28408         4.90431
   H      -15.92033         4.54398         3.86350
   H      -13.86699         3.01344         3.56299
   H      -13.75864         5.22315         4.10751
   H      -15.02100         1.56713         5.97996
   H      -13.60734         1.10587         5.04653
*
