# ORCA input file
# SCF done       -156.037645225069          0.000621687864
! CAM-B3LYP def2-SVP def2/J RIJCOSX Grid4 TightSCF
%maxcore 5000
%tddft
    Mode sTDDFT
    Ethresh 5.0
    maxcore 5000
end

%pal
  nprocs 6
  end
* xyz 0 1
   C        0.07842         4.55009        -5.37148
   C       -1.20750         4.09428        -5.52106
   C       -2.29130         4.83374        -6.02551
   N       -3.21693         5.38216        -6.42689
   C       -1.52772         2.77335        -5.14412
   N       -1.79586         1.70226        -4.83351
   N        0.56458         5.78086        -5.66937
   C       -0.22420         6.85366        -6.22435
   C        1.91723         5.98659        -5.40233
   O        2.48044         7.03880        -5.61273
   C        2.50761         4.78104        -4.84897
   S        1.32498         3.50543        -4.72074
   C        3.82056         4.69287        -4.46618
   C        4.40173         3.55176        -3.91723
   C        5.70412         3.45792        -3.46843
   C        6.72885         4.43372        -3.45497
   C        7.89133         4.00694        -2.88259
   C        7.84290         2.67459        -2.41906
   S        6.28022         1.97117        -2.75128
   C        8.82286         1.95766        -1.74988
   C       10.10797         2.38010        -1.34674
   C       10.79304         1.43833        -0.63851
   C       10.08954         0.22060        -0.45672
   S        8.52893         0.31599        -1.24314
   C       10.52556        -0.84465         0.29907
   C        9.86412        -2.06427         0.49627
   S       10.34692        -3.14013         1.80110
   C        9.10775        -4.32599         1.47645
   C        8.36984        -3.91814         0.36133
   C        8.79660        -2.66726        -0.16098
   O        8.07733        -2.33579        -1.24869
   C        7.18726        -3.34371        -1.42080
   N        6.28153        -3.24607        -2.50704
   O        5.50575        -4.17160        -2.64407
   O        6.34612        -2.26227        -3.20968
   C        7.30889        -4.33492        -0.48250
   C        8.91539        -5.45554         2.30021
   S        9.91134        -5.73902         3.69800
   C        9.00142        -7.14842         4.12704
   C        9.37200        -7.99242         5.27634
   O        9.04946        -9.14891         5.36093
   O       10.11624        -7.41274         6.22527
   C        7.98022        -7.38369         3.21958
   C        7.95075        -6.43667         2.18320
   C        7.00999        -8.45799         3.31116
   C        6.33792        -8.80032         4.42229
   C        6.36784        -8.11239         5.72507
   O        6.95565        -7.08826         5.99111
   N        5.57038        -8.77535         6.63425
   C        4.89988        -9.86841         6.17391
   C        4.04465       -10.67604         6.87295
   C        3.68979       -10.53766         8.22795
   N        3.35060       -10.47986         9.32296
   C        3.42016       -11.76298         6.22163
   N        2.90233       -12.64502         5.70430
   S        5.23081       -10.15720         4.48083
   C        5.48897        -8.29792         7.99416
   H       -0.64307         6.56800        -7.18957
   H        0.45062         7.70076        -6.35270
   H       -1.03481         7.12959        -5.54921
   H        4.40625         5.59118        -4.60499
   H        3.77780         2.67252        -3.81685
   H        6.58438         5.41903        -3.85923
   H        8.77298         4.61389        -2.78073
   H       10.48758         3.35905        -1.57707
   H       11.78079         1.57842        -0.23650
   H       11.45346        -0.71403         0.83947
   H        6.71119        -5.22115        -0.44383
   H       10.23798        -6.46342         6.08871
   H        7.22037        -6.45321         1.39716
   H        6.81110        -8.99704         2.39401
   H        6.13393        -7.42146         8.05880
   H        5.83803        -9.06011         8.69071
   H        4.46554        -8.01900         8.24634
*
