# ORCA input file
# SCF done       -153.500202079979          0.000292178289
! CAM-B3LYP def2-SVP def2/J RIJCOSX Grid4 TightSCF
%maxcore 5000
%tddft
    Mode sTDDFT
    Ethresh 5.0
    maxcore 5000
end

%pal
  nprocs 6
  end
* xyz 0 1
   C       14.16259        -9.10517         7.54775
   C       13.01465        -8.62028         8.05071
   C       12.82120        -7.90148         9.27138
   C       11.53811        -7.52104         9.49906
   C       10.62592        -7.94002         8.50418
   S       11.45776        -8.80130         7.23146
   C        9.24783        -7.78215         8.49367
   C        8.43560        -7.03865         9.36057
   C        7.09485        -7.18243         9.10355
   C        6.78762        -8.06525         8.05562
   S        8.26652        -8.64631         7.33390
   C        5.48993        -8.52696         7.80311
   C        5.01704        -9.58189         7.05934
   C        5.63029       -10.41755         6.11094
   C        5.20446       -11.71948         5.82531
   C        5.97512       -12.37754         4.89334
   C        6.99639       -11.58764         4.36136
   S        6.96618        -9.99401         5.07236
   C        7.95726       -11.93991         3.40836
   C        8.25570       -13.21683         2.91936
   C        9.28820       -13.23383         2.01657
   C        9.81701       -11.96285         1.72533
   S        8.99865       -10.74396         2.67646
   C       10.82238       -11.70010         0.81317
   C       11.23595       -10.45476         0.33883
   S       10.38181        -8.96775         0.70510
   C       11.27404        -8.08813        -0.48736
   C       12.19663        -8.86531        -1.11085
   O       13.07509        -8.52079        -2.09865
   C       13.02334        -7.18624        -2.54344
   C       12.23019       -10.20555        -0.61855
   N       13.16732       -11.07870        -1.12299
   C       13.91600       -12.00195        -0.46839
   C       13.90705       -12.24165         0.87868
   C       14.80678       -13.09278         1.51750
   C       14.87092       -13.24427         2.89228
   C       15.88051       -13.87295         3.63835
   C       15.73224       -13.74994         4.99837
   C       14.57768       -13.05905         5.38070
   S       13.67269       -12.55293         3.97548
   C       14.15748       -12.72758         6.67324
   C       14.91590       -12.71442         7.84580
   C       14.23543       -12.21858         8.93567
   C       12.90727       -11.87362         8.67146
   S       12.53608       -12.16002         6.98699
   C       11.97213       -11.34929         9.56443
   C       10.63423       -11.20180         9.28535
   C        9.70280       -10.59691        10.12212
   C        8.31481       -10.53918         9.93096
   C        7.64506        -9.81148        10.87817
   C        8.48267        -9.25262        11.86053
   S       10.14417        -9.72800        11.57828
   C        8.13120        -8.40968        12.89871
   C        6.83892        -7.93640        13.22553
   C        6.80078        -7.09360        14.28809
   C        8.07617        -6.83627        14.88324
   S        9.31932        -7.73561        13.99823
   C        8.35461        -6.05279        15.93770
   H       15.09032        -8.97995         8.07736
   H       14.19343        -9.62148         6.60605
   H       13.64769        -7.69554         9.92784
   H       11.21142        -6.98143        10.37029
   H        8.83765        -6.41794        10.14123
   H        6.32351        -6.69655         9.67645
   H        4.74737        -8.03851         8.42555
   H        3.99654        -9.87583         7.28338
   H        4.37235       -12.16828         6.34000
   H        5.81119       -13.39471         4.58607
   H        7.73140       -14.09490         3.25170
   H        9.66848       -14.12319         1.54579
   H       11.29739       -12.56422         0.36758
   H       11.06045        -7.04849        -0.62517
   H       13.77851        -7.09966        -3.32256
   H       13.25281        -6.49021        -1.73110
   H       12.03906        -6.94555        -2.95677
   H       13.51100       -10.78877        -2.03094
   H       14.59803       -12.54889        -1.10548
   H       13.22438       -11.68969         1.50809
   H       15.55256       -13.60890         0.92685
   H       16.70498       -14.37499         3.16297
   H       16.41868       -14.15665         5.71958
   H       15.94569       -13.02382         7.86718
   H       14.66403       -12.10908         9.91649
   H       12.33593       -11.05902        10.54227
   H       10.25889       -11.57594         8.34036
   H        7.84075       -11.03071         9.09925
   H        6.58080        -9.65952        10.87795
   H        5.97438        -8.23792        12.66052
   H        5.90906        -6.63750        14.68017
   H        7.57054        -5.52258        16.44840
   H        9.35759        -5.93194        16.30304
*
