# ORCA input file
# SCF done       -175.921536653085          0.000413914399
! CAM-B3LYP def2-SVP def2/J RIJCOSX Grid4 TightSCF
%maxcore 5000
%tddft
    Mode sTDDFT
    Ethresh 5.0
    maxcore 5000
end

%pal
  nprocs 6
  end
* xyz 0 1
   C       16.23800        -9.10046         2.06619
   C       16.47186       -10.10511         2.96326
   F       17.73674       -10.51581         3.18339
   C       15.44119       -10.73319         3.67358
   C       14.15209       -10.32696         3.46408
   C       13.85391        -9.29464         2.55234
   C       14.91669        -8.67088         1.83737
   C       14.64137        -7.63851         0.90916
   C       13.34784        -7.24084         0.71459
   C       12.29035        -7.85601         1.44455
   C       12.52508        -8.86163         2.33515
   C       11.01060        -7.21221         1.07717
   O        9.89853        -7.49788         1.46777
   C       11.38168        -6.09754         0.17682
   C       12.76431        -6.24680        -0.18394
   C       13.36602        -5.76568        -1.32533
   C       12.65284        -5.10424        -2.34270
   N       12.08759        -4.61258        -3.21408
   C       14.72179        -5.95630        -1.64089
   N       15.83176        -6.04586        -1.92573
   C       10.46341        -5.10456        -0.07530
   C       10.67098        -3.77605        -0.44861
   S       12.22493        -2.99375        -0.37462
   C       11.59386        -1.45161        -0.83958
   C       10.19961        -1.53033        -1.03676
   C        9.67837        -2.83631        -0.80871
   C        8.30749        -3.08309        -0.97869
   C        7.49178        -2.04998        -1.35291
   F        6.17665        -2.26211        -1.51403
   C        8.00655        -0.75666        -1.57593
   F        7.16764         0.22692        -1.94304
   C        9.33905        -0.49003        -1.42502
   C       12.42944        -0.32873        -0.99620
   C       13.78211        -0.36225        -0.85991
   C       14.61690         0.76919        -1.06385
   C       15.96668         0.78243        -1.05370
   C       16.83901        -0.39416        -0.76696
   C       16.71035         2.06877        -1.31305
   N       17.32811         2.55248        -0.09629
   C       18.57223         2.19253         0.28322
   C       19.05935         2.31683         1.55019
   C       20.38090         2.00319         1.89963
   C       20.91111         2.14187         3.15946
   C       22.22219         1.82166         3.57723
   C       22.47152         2.07774         4.89394
   C       21.37215         2.61933         5.59030
   S       19.99849         2.78371         4.52081
   C       21.30978         3.00382         6.91965
   C       22.32528         2.92790         7.89444
   C       21.95172         3.40370         9.11625
   C       20.62170         3.88539         9.18085
   S       19.86014         3.69722         7.60945
   C       20.02174         4.42180        10.29345
   C       18.71353         4.92620        10.42981
   C       17.67837         5.01395         9.49457
   C       16.55134         5.60039        10.12077
   C       15.29444         5.90144         9.64523
   C       14.38082         6.48830        10.53584
   C       13.06718         6.89929        10.37517
   C       12.58544         7.43533        11.61223
   C       13.60680         7.35633        12.54016
   C       14.75128         6.76991        11.91335
   C       15.99814         6.47435        12.39113
   C       16.91974         5.88220        11.49852
   C       18.22397         5.47060        11.67008
   C       11.24805         7.95086        11.78594
   C       10.75268         8.45064        12.91501
   H       17.05664        -8.64200         1.53360
   H       15.68541       -11.52117         4.36825
   H       13.34031       -10.79569         3.99993
   H       15.46370        -7.18113         0.38168
   H       11.70888        -9.32343         2.87034
   H        9.43895        -5.37489         0.15984
   H        7.88815        -4.06360        -0.82508
   H        9.70560         0.50640        -1.60828
   H       11.94662         0.60182        -1.26176
   H       14.24306        -1.30811        -0.61359
   H       14.10027         1.69544        -1.28823
   H       16.28972        -1.21766        -0.32403
   H       17.64391        -0.11066        -0.08692
   H       17.29870        -0.74813        -1.69081
   H       16.03066         2.83995        -1.68539
   H       17.50063         1.91084        -2.05198
   H       16.68662         2.79415         0.64728
   H       19.21728         1.84773        -0.51438
   H       18.40676         2.67839         2.33414
   H       21.03634         1.61949         1.12850
   H       22.94269         1.41117         2.89169
   H       23.41484         1.89535         5.37657
   H       23.29844         2.52762         7.67341
   H       22.59408         3.42637         9.97927
   H       20.64089         4.46387        11.18189
   H       17.70982         4.69577         8.47061
   H       15.01306         5.69522         8.62229
   H       12.48720         6.83193         9.47150
   H       13.57046         7.67470        13.56501
   H       16.28237         6.67927        13.41407
   H       18.80200         5.53650        12.57506
   H       10.62342         7.90991        10.90172
   H       11.33624         8.51055        13.81760
   H        9.74297         8.81817        12.97423
*
