# ORCA input file
# SCF done       -193.109549439135          0.000360164020
! CAM-B3LYP def2-SVP def2/J RIJCOSX Grid4 TightSCF
%maxcore 5000
%tddft
    Mode sTDDFT
    Ethresh 5.0
    maxcore 5000
end

%pal
  nprocs 6
  end
* xyz 0 1
   C        1.21658        -1.54367        -3.04865
   C        2.30999        -1.71724        -3.84741
   C        3.62824        -1.87932        -3.36614
   N        4.71729        -2.01384        -3.03142
   C        2.27840        -1.74039        -5.25981
   N        2.33328        -1.76156        -6.40554
   C        1.21028        -1.48438        -1.59475
   C       -0.10691        -1.21679        -1.14056
   C       -0.42086        -1.10133         0.19278
   C        0.60958        -1.26025         1.12411
   C        1.92196        -1.53025         0.66238
   C        2.24087        -1.64470        -0.68356
   S        3.04144        -1.69371         1.98066
   C        1.75218        -1.40118         3.11769
   C        0.54373        -1.19157         2.54202
  Br        2.12252        -1.39980         4.95496
   C       -1.01366        -1.09914        -2.29587
   O       -2.19408        -0.84412        -2.28402
   C       -0.16285        -1.35749        -3.49814
   C       -0.67625        -1.42576        -4.73390
   C       -2.12319        -1.23778        -4.96104
   N       -2.88317        -2.32434        -4.86996
   C       -4.18625        -2.14089        -5.01860
   C       -4.73835        -0.89653        -5.25386
   C       -3.84711         0.17774        -5.38296
   N       -2.52982        -0.01686        -5.24537
   C       -4.31478         1.51607        -5.64430
   C       -3.45314         2.54252        -5.82929
   C       -3.74050         3.91540        -6.01499
   S       -2.41751         5.02260        -5.83449
   C       -3.43205         6.42653        -5.91868
   C       -4.76322         6.04265        -6.19361
   C       -4.93376         4.62348        -6.25787
   C       -6.19215         4.09698        -6.60409
   C       -7.23010         4.94946        -6.85543
   F       -8.42800         4.45226        -7.19870
   C       -7.05640         6.34729        -6.80102
   F       -8.09055         7.14805        -7.09721
   C       -5.84213         6.89304        -6.48931
   C       -2.87168         7.69253        -5.68125
   C       -3.54816         8.78195        -5.19332
   C       -2.96550        10.03087        -4.97383
   C       -3.60062        11.05784        -4.30619
   C       -3.11295        12.35921        -4.05926
   C       -3.95134        13.13848        -3.31396
   C       -5.13631        12.48315        -2.92154
   S       -5.17980        10.86385        -3.56521
   C       -6.14706        12.95589        -2.09624
   C       -6.25528        14.22084        -1.48587
   C       -7.34597        14.34438        -0.67258
   C       -8.14236        13.18125        -0.59611
   S       -7.48528        11.93436        -1.62710
   C       -9.27025        12.99906         0.18382
   C       -9.95395        11.79158         0.25549
   C      -11.05677        11.46557         1.01615
   C      -11.32901        10.03388         1.28545
   O      -10.81923         9.08098         0.73502
   C      -12.29956        10.02176         2.39747
   C      -12.79719         8.95895         3.09241
   C      -13.68829         9.19264         4.16448
   C      -14.04290        10.53225         4.49508
   C      -14.92073        10.75979         5.57227
   C      -15.41362         9.69449         6.27336
   C      -15.07918         8.37019         5.96229
   C      -14.22744         8.13164         4.91943
   F      -16.25206         9.91082         7.30499
   C      -13.51862        11.61460         3.74810
   C      -12.66345        11.36267         2.71103
   C      -11.98974        12.25782         1.76700
   C      -12.34902        13.56623         1.53676
   C      -11.89949        14.33814         0.44820
   N      -11.60389        15.00437        -0.43990
   C      -13.29894        14.26602         2.30538
   N      -14.04624        14.89721         2.90789
   H       -1.43252        -0.89632         0.50604
   H        3.25389        -1.85329        -0.98472
   H       -0.35775        -0.99712         3.09376
   H       -0.07355        -1.63305        -5.60660
   H       -4.79501        -3.03221        -4.93737
   H       -5.80316        -0.75617        -5.34446
   H       -5.38440         1.64855        -5.63515
   H       -2.40058         2.29263        -5.76950
   H       -6.34830         3.03912        -6.71904
   H       -5.72472         7.96286        -6.51549
   H       -1.79965         7.77243        -5.81208
   H       -4.58004         8.66741        -4.89133
   H       -1.96023        10.21131        -5.33068
   H       -2.15861        12.68243        -4.43597
   H       -3.73982        14.15296        -3.02834
   H       -5.53479        15.00094        -1.65385
   H       -7.59935        15.23311        -0.12288
   H       -9.57942        13.83816         0.78887
   H       -9.51854        10.94868        -0.27510
   H      -12.51230         7.95082         2.83090
   H      -15.20293        11.76648         5.83847
   H      -15.49922         7.56982         6.55060
   H      -13.95406         7.11977         4.66014
   H      -13.80171        12.61729         4.02624
*
