# ORCA input file
# SCF done       -185.456308191400          0.000553874856
! CAM-B3LYP def2-SVP def2/J RIJCOSX Grid4 TightSCF
%maxcore 5000
%tddft
    Mode sTDDFT
    Ethresh 5.0
    maxcore 5000
end

%pal
  nprocs 6
  end
* xyz 0 1
   C       -6.74783        10.00500        -2.21393
   C       -5.66055        10.81895        -2.05517
   C       -5.22151        11.76242        -3.00049
   N       -4.82924        12.52825        -3.76164
   C       -4.87255        10.73554        -0.88752
   N       -4.21829        10.66234         0.05180
   C       -7.61701         9.83556        -3.36736
   C       -8.48814         8.68958        -3.01661
   C       -8.49695         7.48822        -3.65718
   C       -8.24002         7.51893        -5.08105
   C       -8.34166        10.15822        -5.70686
   C       -7.51910        10.44745        -4.57996
   S       -7.52933         9.90067        -7.21981
   C       -7.32302         7.03233        -9.25057
   C       -7.92214         7.59302        -8.03340
  Br       -8.33142         7.24179       -10.79600
   C       -8.58821         8.67199        -1.55659
   O       -9.46186         8.28086        -0.82340
   C       -7.16650         8.98684        -1.25262
   C       -6.47550         7.91596        -0.79952
   N       -7.16826         6.82843        -0.29257
   C       -7.17934         5.57970        -0.85131
   S       -5.87572         0.34995        -1.91987
   C       -7.45509         0.63673        -1.59385
   N       -8.19608        -0.42974        -0.93636
   O       -9.34574        -0.18327        -0.60802
   O       -7.62834        -1.47793        -0.73529
   C       -8.23932         1.76809        -1.96442
   C       -6.52925         5.13731        -1.97628
   C       -6.28889         5.83029        -3.21311
   C       -5.65330         6.96628        -3.60345
   C       -5.77644         7.48925        -4.91848
   C       -6.95339         7.63604        -5.64594
   C       -6.85738         8.10712        -7.04676
   C       -8.83474         8.86338        -8.06058
   C       -9.97845         8.69864        -7.15744
   S       -9.48550         8.82257        -5.48032
   C      -11.22966         8.19237        -7.36752
   C      -11.97301         8.00440        -8.56635
   C      -13.19410         7.45498        -8.36650
   C      -13.49901         7.11856        -7.00802
   S      -12.15545         7.62327        -5.98161
   C      -14.58041         6.38950        -6.62457
   C      -14.94013         5.78735        -5.37294
   C      -14.79716         6.17433        -4.08950
   C      -14.32729         7.50246        -3.61429
   C      -15.32904         5.23809        -3.02044
   N      -14.55237         5.11747        -1.80131
   C      -13.23948         4.88908        -1.69989
   C      -12.39169         4.85269        -2.78132
   C      -11.01408         4.67876        -2.87483
   C       -9.88213         4.57677        -2.06274
   C       -9.57224         5.00555        -0.73704
   C      -10.32475         5.87829         0.02443
   C       -9.91311         6.20375         1.33341
   N       -9.57787         6.45018         2.40315
   C      -11.42948         6.58116        -0.46092
   N      -12.34621         7.11818        -0.90457
   C       -8.19808         4.65861        -0.24769
   C       -7.82461         3.02892        -2.19264
   C       -8.78271         3.96408        -2.85702
   O       -8.66831         4.13412        -4.05700
   C       -6.44659         3.60953        -2.02287
   C       -5.80520         3.16019        -0.73244
   C       -6.50917         3.15019         0.45227
   C       -7.87638         3.59522         0.50190
   S       -5.58798         2.47487         1.75294
   C       -4.24324         2.25231         0.68642
   C       -4.49869         2.64893        -0.59299
  Br       -2.64203         1.52106         1.32390
   H       -8.89979         6.61054        -3.18070
   H       -6.77116        11.21282        -4.73123
   H       -8.45261         6.74548        -7.56576
   H       -5.40337         7.81160        -0.87926
   H       -8.00087         7.06877         0.23941
   H       -9.30090         1.56143        -2.05723
   H       -6.72637         5.26898        -4.03711
   H       -4.91986         7.44269        -2.96544
   H       -4.87080         7.85403        -5.38465
   H       -5.84304         8.07640        -7.43776
   H       -9.07743         9.23015        -9.05737
   H      -11.57749         8.28939        -9.52493
   H      -13.89675         7.24638        -9.15425
   H      -15.22622         6.09156        -7.44413
   H      -15.45141         4.84084        -5.52888
   H      -14.24082         8.20719        -4.43449
   H      -13.36400         7.42364        -3.10964
   H      -15.03069         7.89673        -2.88213
   H      -15.46137         4.23775        -3.45566
   H      -16.31868         5.60062        -2.72274
   H      -15.08525         5.10546        -0.94678
   H      -12.89651         4.63754        -0.70723
   H      -12.87021         4.95966        -3.74557
   H      -10.72533         4.51700        -3.91236
   H       -5.81914         3.29367        -2.86178
   H       -8.62182         2.99849         1.00746
   H       -3.78658         2.56766        -1.39336
*
