# ORCA input file
# SCF done       -198.233802944324          0.000555325304
! CAM-B3LYP def2-SVP def2/J RIJCOSX Grid4 TightSCF
%maxcore 5000
%tddft
    Mode sTDDFT
    Ethresh 5.0
    maxcore 5000
end

%pal
  nprocs 6
  end
* xyz 0 1
   C       -5.04341         2.04189         6.93849
   C       -4.71069         1.88826         8.26302
   C       -3.65332         1.07818         8.72277
   N       -2.80387         0.43987         9.15892
   C       -5.38482         2.48298         9.34872
   N       -5.88679         2.90881        10.29058
   C       -4.40785         1.34121         5.82416
   C       -5.08940         1.68611         4.63209
   C       -4.74107         1.17929         3.40550
   C       -3.66612         0.28387         3.35174
   C       -2.98740        -0.04970         4.54576
   C       -3.34057         0.46554         5.78835
   S       -1.68661        -1.16534         4.25171
   C       -2.07217        -1.17048         2.55180
   C       -3.11784        -0.37782         2.21859
  Br       -1.05830        -2.22321         1.37503
   C       -6.16180         2.64838         4.95294
   O       -6.88181         3.22014         4.14750
   C       -6.12185         2.83877         6.40209
   C       -6.86781         3.76205         7.11833
   C       -8.05803         4.40861         6.79779
   C       -9.07351         4.07245         5.91517
   C      -10.28402         4.80886         5.80930
   C      -11.22036         4.24147         5.00060
   C      -10.79510         3.01772         4.43704
   S       -9.16192         2.64724         4.93327
   C      -11.49386         2.18768         3.57690
   C      -12.81803         2.33211         3.10818
   C      -13.21848         1.32989         2.27681
   C      -12.23335         0.33994         2.03602
   S      -10.77332         0.74021         2.92070
   C      -12.40819        -0.76326         1.23345
   C      -11.48488        -1.77138         0.92981
   C      -10.15619        -1.93883         1.30125
   C       -9.58425        -3.08520         0.77229
  Cl       -7.95401        -3.52044         1.07269
   C      -10.43801        -3.85645        -0.02391
   S      -11.99900        -3.09018        -0.09791
   C      -10.15819        -5.06474        -0.68731
   C      -11.01764        -5.83959        -1.47413
  Cl      -12.64701        -5.40161        -1.77236
   C      -10.45138        -6.99239        -1.99481
   C       -9.12001        -7.15856        -1.63175
   S       -8.59655        -5.83070        -0.62007
   C       -8.20023        -8.16902        -1.93647
   C       -8.39710        -9.30197        -2.69211
   C       -7.41109       -10.28600        -2.94890
   C       -7.84028       -11.32755        -3.71607
   C       -9.19143       -11.22400        -4.10984
   S       -9.89634        -9.75832        -3.47634
   C       -9.92739       -12.11289        -4.87727
   C       -9.49520       -13.32835        -5.44701
   C      -10.46987       -13.98510        -6.14057
   C      -11.71520       -13.31845        -6.15631
   S      -11.61144       -11.82850        -5.25141
   C      -12.87707       -13.76001        -6.76014
   C      -14.06354       -13.03505        -6.76796
   C      -15.28789       -13.41719        -7.27237
   C      -15.80543       -14.69684        -7.67033
   C      -15.40812       -15.93196        -7.21048
   C      -15.99085       -17.14686        -7.61910
   N      -16.41374       -18.16916        -7.92869
   C      -14.45432       -16.13285        -6.19381
   N      -13.72102       -16.36123        -5.33952
   C      -16.99499       -14.45230        -8.48666
   C      -17.31165       -13.07237        -8.42209
   C      -16.28992       -12.38074        -7.60694
   O      -16.25329       -11.20638        -7.30819
   C      -18.40261       -12.53486        -9.05850
   C      -19.21481       -13.39781        -9.80339
   C      -18.88279       -14.77059        -9.87190
   C      -17.78223       -15.31684        -9.22062
   S      -20.01272       -15.65350       -10.85351
   C      -20.90644       -14.18596       -11.15052
   C      -20.38639       -13.09049       -10.54882
  Br      -22.44020       -14.23886       -12.22960
   H       -5.28043         1.46056         2.51463
   H       -2.78888         0.18149         6.66875
   H       -3.48817        -0.26228         1.21624
   H       -6.45640         4.05331         8.07782
   H       -8.29000         5.26812         7.41714
   H      -10.41974         5.73673         6.33648
   H      -12.18497         4.66833         4.79361
   H      -13.43633         3.16210         3.39786
   H      -14.19208         1.26876         1.82377
   H      -13.38444        -0.86779         0.77696
   H       -9.61505        -1.25559         1.92755
   H      -10.99785        -7.67723        -2.61462
   H       -7.20866        -8.04394        -1.52007
   H       -6.41462       -10.19236        -2.55511
   H       -7.22481       -12.16026        -4.00379
   H       -8.48821       -13.68697        -5.33317
   H      -10.33542       -14.93038        -6.63502
   H      -12.82373       -14.71116        -7.26965
   H      -14.02080       -12.00857        -6.41443
   H      -18.62471       -11.48180        -8.98551
   H      -17.56750       -16.36913        -9.30601
   H      -20.80902       -12.10539       -10.62614
*
