# ORCA input file
# SCF done       -191.176245125663          0.000577946369
! CAM-B3LYP def2-SVP def2/J RIJCOSX Grid4 TightSCF
%maxcore 5000
%tddft
    Mode sTDDFT
    Ethresh 5.0
    maxcore 5000
end

%pal
  nprocs 6
  end
* xyz 0 1
   C      -10.29013         2.96548         4.21410
   C      -11.19407         3.86213         4.70721
   C      -12.16967         3.55283         5.68092
   N      -12.98238         3.35859         6.46703
   C      -11.29125         5.21370         4.30716
   N      -11.43534         6.31871         4.03456
   C      -10.17112         1.56538         4.59351
   C       -9.15823         0.95186         3.81286
   C       -8.82048        -0.37370         3.94735
   C       -9.50811        -1.13080         4.90040
   C      -10.51685        -0.50993         5.67816
   C      -10.86183         0.82741         5.54035
   S      -11.23944        -1.62701         6.79554
   C      -10.19313        -2.89403         6.21221
   C       -9.34479        -2.50336         5.23085
  Br      -10.31880        -4.61135         6.95256
   C       -8.58179         1.94123         2.88480
   O       -7.76404         1.74540         2.01822
   C       -9.26565         3.23218         3.20499
   C       -8.92458         4.39175         2.62472
   C       -7.78520         4.46930         1.69276
   N       -6.57430         4.38646         2.23740
   C       -5.55310         4.41400         1.39577
   C       -5.71537         4.51853         0.02777
   C       -7.02926         4.65116        -0.44579
   N       -8.05695         4.64003         0.41440
   C       -7.38572         4.81272        -1.83135
   C       -6.54405         4.64313        -2.87935
   C       -6.92533         4.79276        -4.22932
   C       -6.08891         4.54463        -5.28389
   C       -6.38340         4.66920        -6.66778
   C       -5.35876         4.32546        -7.49202
   C       -4.19132         3.90256        -6.81068
   S       -4.43649         3.97696        -5.08167
   C       -3.00309         3.45798        -7.35024
   C       -2.65020         3.32257        -8.71339
   C       -1.40213         2.82142        -8.91081
   C       -0.69236         2.52916        -7.71526
   S       -1.67933         2.93521        -6.32632
   C        0.56791         1.99581        -7.64540
   C        1.29902         1.68406        -6.48755
   C        2.57732         1.11239        -6.47410
   C        3.25819         0.82227        -7.66283
   N        3.78370         0.61407        -8.66210
   C        3.06858         0.90766        -5.16185
   C        2.15637         1.34337        -4.20583
   S        0.69849         1.97769        -4.86551
   S        2.68075         1.18197        -2.55931
   C        4.16168         0.51081        -3.15176
   C        4.24869         0.40642        -4.53931
   C        5.49186        -0.14387        -4.93559
   C        5.83565        -0.51177        -6.24538
   N        6.14510        -0.86191        -7.29299
   C        6.32479        -0.41491        -3.85355
   S        5.55559        -0.05373        -2.32633
   C        7.63206        -0.97125        -3.84941
   C        8.59169        -0.90972        -4.80500
   C        8.75744        -0.11361        -6.00682
   C        8.30732         1.16158        -6.21519
   C        8.64553         1.93727        -7.34490
   N        8.90419         2.61681        -8.23183
   C        7.52338         1.87895        -5.29104
   N        6.90304         2.50366        -4.55411
   C        9.71327        -0.81451        -6.85286
   C       10.31730        -1.85508        -6.10124
   C        9.71585        -1.89653        -4.75740
   O       10.01279        -2.59928        -3.82133
   C       11.28786        -2.67399        -6.62717
   C       11.66606        -2.46470        -7.95732
   C       11.03768        -1.43797        -8.70513
   C       10.06400        -0.60288        -8.17197
   S       11.64153        -1.37094       -10.33092
   C       12.72082        -2.69717        -9.98965
   C       12.63250        -3.17116        -8.72381
  Br       13.86042        -3.33250       -11.33477
   H       -8.04640        -0.81078         3.33629
   H      -11.63607         1.25355         6.15627
   H       -8.63271        -3.15525         4.75869
   H       -9.44774         5.31683         2.82077
   H       -4.57281         4.34761         1.85035
   H       -4.86679         4.52133        -0.63486
   H       -8.42548         5.05290        -2.00485
   H       -5.51451         4.35649        -2.70634
   H       -7.93488         5.11343        -4.44788
   H       -7.34777         5.00827        -7.00252
   H       -5.40671         4.35709        -8.56564
   H       -3.32539         3.59512        -9.50433
   H       -0.95904         2.64460        -9.87463
   H        1.06630         1.78016        -8.58234
   H        7.88756        -1.56860        -2.97867
   H       11.73865        -3.45372        -6.03355
   H        9.59776         0.15583        -8.77819
   H       13.22294        -3.98534        -8.34504
*
