# ORCA input file
# SCF done       -220.969921945023          0.000464190762
! CAM-B3LYP def2-SVP def2/J RIJCOSX Grid4 TightSCF
%maxcore 5000
%tddft
    Mode sTDDFT
    Ethresh 5.0
    maxcore 5000
end

%pal
  nprocs 6
  end
* xyz 0 1
   C        3.12891         3.07145         2.92439
   C        3.64999         3.15248         4.18500
   F        4.22964         4.28411         4.60256
   C        3.58452         2.04932         5.06125
   F        4.10364         2.15832         6.29039
   C        2.99907         0.88012         4.66384
   C        2.45281         0.76497         3.37048
   C        2.51651         1.88019         2.48429
   C        1.96767         1.79155         1.18573
   C        1.36771         0.62511         0.78564
   C        1.31655        -0.48572         1.67432
   C        1.84350        -0.43106         2.93326
   C        0.63792        -1.61410         1.01874
   O        0.52955        -2.74492         1.43466
   C        0.22659        -1.10500        -0.32620
   C        0.69714         0.26714        -0.45811
   C        0.46544         1.10230        -1.51505
   C       -0.27617         0.76185        -2.66800
   N       -0.88777         0.56128        -3.61790
   C        0.91777         2.43873        -1.58198
   N        1.26468         3.52595        -1.69845
   C       -0.36861        -1.86689        -1.27119
   C       -1.00587        -3.13116        -0.99923
   C       -0.94353        -4.22668        -1.84103
   C       -0.18609        -4.32383        -3.00845
   N        0.44155        -4.39149        -3.96714
   S       -1.87550        -5.56822        -1.25346
   C       -2.40667        -4.64919         0.12562
   C       -1.85605        -3.37632         0.11788
   C       -2.16792        -2.35805         1.03344
   N       -2.41208        -1.47357         1.72296
   C       -3.32591        -5.20664         1.05422
   S       -3.85640        -4.32811         2.46506
   C       -4.95011        -5.58550         2.86667
   C       -4.92586        -6.61264         1.97813
   C       -3.99132        -6.41750         0.93541
   C       -3.75841        -7.40436        -0.11349
   C       -4.69400        -7.83126        -0.97955
   C       -4.44348        -9.02268        -1.87612
   C       -5.46846       -10.06755        -1.56848
   S       -6.84155       -10.29001        -2.60869
   C       -7.54696       -11.43537        -1.51679
   C       -8.87697       -12.03151        -1.81552
   C       -8.88632       -12.78146        -3.14700
   C       -6.74327       -11.63054        -0.43819
   C       -5.56726       -10.84682        -0.45892
   C       -6.01022        -7.24527        -1.09024
   C       -6.32694        -5.96413        -0.82574
   C       -7.63892        -5.40938        -0.90635
   C       -8.87326        -6.02455        -1.06608
   C       -9.06271        -7.41472        -1.11511
   N       -9.24222        -8.54799        -1.11601
   C       -9.94568        -5.08784        -1.09182
   C       -9.48684        -3.78649        -0.92698
   S       -7.78227        -3.67160        -0.75584
   S      -10.71622        -2.56088        -0.92012
   C      -11.88265        -3.81379        -1.15321
   C      -11.36535        -5.10739        -1.23318
   C      -12.39899        -6.05476        -1.43332
   C      -12.24785        -7.44565        -1.57799
   N      -12.18401        -8.58356        -1.69551
   C      -13.65603        -5.46745        -1.53138
   S      -13.58741        -3.72949        -1.32101
   C      -14.88530        -6.16368        -1.68098
   C      -16.07013        -5.68965        -2.13960
   C      -17.33912        -6.39396        -1.78206
   O      -17.44469        -7.50663        -1.32908
   C      -18.40515        -5.40337        -2.03447
   C      -19.73647        -5.48506        -1.74202
   C      -20.57498        -4.38986        -2.04757
   C      -20.01539        -3.22458        -2.64941
   C      -20.85707        -2.13262        -2.94235
   C      -22.19145        -2.19497        -2.65398
   C      -22.74432        -3.34842        -2.06038
   C      -21.95436        -4.42358        -1.76373
   F      -24.05426        -3.38023        -1.78739
   F      -22.98917        -1.15732        -2.93225
   C      -18.63525        -3.17128        -2.94891
   C      -17.84357        -4.24778        -2.65039
   C      -16.42087        -4.48579        -2.86897
   C      -15.64586        -3.86008        -3.80755
   C      -14.35365        -4.30204        -4.16296
   N      -13.31430        -4.66024        -4.49197
   C      -16.08285        -2.75903        -4.57310
   N      -16.39126        -1.85111        -5.20277
   H        3.18561         3.92533         2.26745
   H        2.95656         0.04555         5.34598
   H        2.03437         2.65104         0.53852
   H        1.78685        -1.28767         3.58734
   H       -0.40104        -1.53902        -2.30253
   H       -5.55111        -5.49239         3.74956
   H       -5.53828        -7.49283         2.05297
   H       -2.77891        -7.86858        -0.11518
   H       -3.43706        -9.41038        -1.70735
   H       -4.53221        -8.72359        -2.92274
   H       -9.62064       -11.23029        -1.84759
   H       -9.14309       -12.71078        -1.00287
   H       -8.64231       -12.10464        -3.96305
   H       -9.86974       -13.20555        -3.33237
   H       -8.15565       -13.58812        -3.13657
   H       -6.98870       -12.30687         0.36149
   H       -4.82558       -10.86240         0.32085
   H       -6.78197        -7.90219        -1.46273
   H       -5.55703        -5.25532        -0.55478
   H      -14.89374        -7.18623        -1.31308
   H      -20.14398        -6.37260        -1.28256
   H      -20.45109        -1.24413        -3.40014
   H      -22.39267        -5.29845        -1.30969
   H      -18.23354        -2.27569        -3.39589
*
