# ORCA input file
# SCF done       -183.473438519666          0.000580278933
! CAM-B3LYP def2-SVP def2/J RIJCOSX Grid4 TightSCF
%maxcore 5000
%tddft
    Mode sTDDFT
    Ethresh 5.0
    maxcore 5000
end

%pal
  nprocs 6
  end
* xyz 0 1
   C       -5.83625         0.14495         1.25299
   O       -6.62418        -0.75596         1.07572
   C       -6.16354         1.48336         1.79832
   C       -4.99892         2.26305         1.89223
   C       -5.07939         3.55594         2.39178
   C       -6.31621         4.04479         2.78245
   C       -7.45503         3.25637         2.67668
   C       -7.39908         1.95957         2.18526
  Br       -9.12832         3.97212         3.22249
   C       -3.87034         1.47657         1.40655
   C       -2.59443         1.94226         1.23046
   C       -2.18019         3.25125         1.55605
   N       -1.78292         4.29801         1.80837
   C       -1.52568         1.20459         0.67694
   N       -0.61019         0.68237         0.22117
   C       -4.36266         0.14986         1.06861
   C       -3.56921        -0.93623         0.84941
   C       -3.93709        -2.25922         0.43975
   C       -3.11612        -3.32428         0.86275
   C       -3.43796        -4.61072         0.51724
   C       -4.58282        -4.86661        -0.26528
   C       -5.35908        -3.81926        -0.74502
   C       -5.03382        -2.52676        -0.39379
   C       -4.74650        -6.29602        -0.38872
   C       -3.71398        -6.92655         0.32718
   C       -2.74277        -5.90370         0.87675
   C       -1.42213        -6.07407         0.08695
   C       -0.35705        -5.01559         0.34051
   C       -2.52399        -6.05250         2.38857
   C       -3.83318        -6.02139         3.16914
   C       -3.67548        -8.29456         0.43179
   C       -4.66438        -9.07113        -0.19265
   C       -5.67344        -8.42744        -0.92279
   C       -5.72505        -7.05284        -1.02093
   C       -4.61722       -10.50579        -0.02387
   C       -5.27595       -11.40475        -0.77914
   C       -5.26724       -12.83395        -0.61807
   C       -4.81389       -13.55223         0.47929
   F       -4.29952       -12.91272         1.54901
   C       -4.86051       -14.95058         0.57764
   F       -4.33599       -15.47497         1.69793
   C       -5.37376       -15.77507        -0.41628
   C       -5.81859       -15.07951        -1.57510
   C       -5.78330       -13.64640        -1.66444
   N       -6.26600       -13.21162        -2.82629
   S       -6.71517       -14.47525        -3.71416
   N       -6.32268       -15.63571        -2.67105
   C       -5.46475       -17.19664        -0.34562
   S       -5.63611       -18.12749        -1.81356
   C       -5.64063       -19.64963        -0.97279
   C       -5.80142       -20.94025        -1.69553
   C       -7.26719       -21.38203        -1.70332
   C       -5.56274       -19.43295         0.36679
   C       -5.45875       -18.04956         0.75142
   N       -5.43753       -17.83215         2.07530
   C       -5.49437       -18.92724         2.76438
   S       -5.58902       -20.43602         1.77924
   C       -5.51745       -19.05920         4.16379
   C       -5.45553       -18.01494         5.04817
   C       -5.31713       -16.62771         4.77415
   C       -5.30350       -15.84548         5.88183
   C       -5.43319       -16.56016         7.10278
   S       -5.55662       -18.28046         6.77831
   C       -5.47095       -16.04621         8.37538
   C       -5.38743       -14.67233         8.74893
   C       -5.46205       -14.45193        10.07826
   C       -5.61143       -15.64117        10.86958
   S       -5.64604       -17.05135         9.79738
   C       -5.71503       -15.73026        12.20169
   H       -4.20782         4.18215         2.48803
   H       -6.39676         5.04709         3.17428
   H       -8.27903         1.34046         2.10361
   H       -2.51119        -0.81439         1.05481
   H       -2.26875        -3.10995         1.49710
   H       -6.21303        -4.01297        -1.37580
   H       -5.61761        -1.70844        -0.77996
   H       -1.66730        -6.07534        -0.97854
   H       -1.01547        -7.05789         0.33166
   H       -0.69771        -4.03503         0.01952
   H        0.53647        -5.26306        -0.22849
   H       -0.08313        -4.96997         1.39116
   H       -1.88074        -5.24441         2.73901
   H       -2.00930        -6.99653         2.57865
   H       -4.36041        -5.08517         2.99810
   H       -3.63661        -6.11604         4.23466
   H       -4.48251        -6.83924         2.86501
   H       -2.89370        -8.78663         0.99255
   H       -6.44290        -9.01889        -1.39404
   H       -6.52017        -6.57299        -1.57159
   H       -3.96980       -10.84362         0.77226
   H       -5.85612       -11.08024        -1.63164
   H       -5.19743       -21.70271        -1.19735
   H       -5.44775       -20.82708        -2.72137
   H       -7.62715       -21.50872        -0.68512
   H       -7.37002       -22.32754        -2.22906
   H       -7.88305       -20.63638        -2.20041
   H       -5.60356       -20.06474         4.54924
   H       -5.22315       -16.28454         3.76164
   H       -5.20372       -14.77525         5.86102
   H       -5.27516       -13.89890         8.01035
   H       -5.41826       -13.48454        10.54639
   H       -5.69110       -14.84657        12.81476
   H       -5.82561       -16.67663        12.69847
*
