# ORCA input file
# SCF done       -158.865707631298          0.000769833643
! CAM-B3LYP def2-SVP def2/J RIJCOSX Grid4 TightSCF
%maxcore 5000
%tddft
    Mode sTDDFT
    Ethresh 5.0
    maxcore 5000
end

%pal
  nprocs 6
  end
* xyz 0 1
   C        8.16329       -10.28065        -7.77114
   C        7.89085        -9.50007        -6.71748
   C        6.60576        -9.03382        -6.27865
   C        6.63994        -8.26264        -5.17081
   C        7.94582        -8.05345        -4.64100
   S        9.13821        -8.87978        -5.62298
   C        8.28478        -7.33137        -3.52355
   C        7.42204        -6.64022        -2.63654
   C        8.06260        -6.03921        -1.60244
   C        9.47458        -6.21417        -1.59971
   S        9.95327        -7.16832        -2.99252
   C       10.31833        -5.73704        -0.63280
   C       11.72425        -5.84334        -0.57778
   S       12.63512        -6.34614        -1.99547
   C       14.11934        -6.05717        -1.24264
   C       13.96774        -5.60026         0.04414
   N       15.08488        -5.21648         0.80555
   O       16.18805        -5.50754         0.40148
   O       14.89309        -4.59132         1.85283
   C       12.59676        -5.50063         0.46188
   N       12.32664        -5.15139         1.75099
   C       11.15713        -5.00233         2.44496
   C       11.16532        -4.40898         3.65390
   N       10.03296        -4.12656         4.39129
   C        9.95036        -3.19617         5.37980
   S        8.66560        -3.36841         6.54261
   C        9.29611        -2.01782         7.43543
   N        8.60757        -1.62155         8.57772
   O        9.04836        -0.67774         9.21222
   O        7.60128        -2.25654         8.86093
   C       10.42174        -1.48292         6.86587
   C       10.79916        -2.11700         5.66990
   C       11.91793        -1.65164         4.87468
   C       11.95667        -1.67152         3.52908
   C       13.11406        -1.42297         2.73264
   S       14.59394        -0.79989         3.41446
   C       15.42434        -1.00164         1.95154
   C       14.63730        -1.55999         0.97668
   N       15.21486        -2.04630        -0.22338
   O       16.25541        -1.54889        -0.59951
   O       14.64706        -2.97744        -0.77554
   C       13.28554        -1.77225         1.39607
   N       12.28028        -2.29368         0.62224
   C       12.10377        -2.13261        -0.73178
   C       12.66931        -1.16133        -1.48439
   C       12.51641        -1.05891        -2.88189
   C       13.09861        -0.07985        -3.63680
   C       13.02814         0.07129        -5.04763
   C       13.72533         1.12879        -5.53459
   C       14.38868         1.89329        -4.53982
   S       14.09085         1.20547        -2.95525
   C       15.16282         3.01342        -4.71669
   C       15.48970         3.65271        -5.94594
   C       16.27650         4.74274        -5.81639
   C       16.63593         5.05847        -4.46316
   S       15.90492         3.86709        -3.37596
   C       17.39536         6.07442        -4.03280
   H        7.37377       -10.63681        -8.40907
   H        9.16813       -10.57509        -8.01263
   H        5.71333        -9.30147        -6.81609
   H        5.77180        -7.83061        -4.70537
   H        6.35772        -6.61366        -2.78560
   H        7.56923        -5.47479        -0.83011
   H        9.83573        -5.18107         0.15752
   H       15.04880        -6.18620        -1.75982
   H       13.16911        -4.83488         2.24104
   H       10.25183        -5.39804         2.01444
   H       12.09206        -4.06894         4.08608
   H        9.20386        -4.67752         4.21595
   H       10.93239        -0.63488         7.28528
   H       12.76353        -1.26604         5.42771
   H       11.06910        -1.97096         2.98724
   H       16.46702        -0.76909         1.86238
   H       11.52380        -2.73073         1.12763
   H       11.43775        -2.85798        -1.17809
   H       13.28563        -0.40719        -1.01115
   H       11.92630        -1.80965        -3.38952
   H       12.46615        -0.61951        -5.65161
   H       13.78554         1.38562        -6.57709
   H       15.12916         3.27381        -6.88629
   H       16.62728         5.34959        -6.63207
   H       17.82022         6.77504        -4.72940
   H       17.60493         6.22173        -2.98923
*
