# ORCA input file
# SCF done       -195.725844323752          0.000829113118
! CAM-B3LYP def2-SVP def2/J RIJCOSX Grid4 TightSCF
%maxcore 5000
%tddft
    Mode sTDDFT
    Ethresh 5.0
    maxcore 5000
end

%pal
  nprocs 6
  end
* xyz 0 1
   C      -14.02001        14.69664        -2.13936
   C      -14.06040        13.35441        -1.78479
   C      -12.97581        12.55666        -2.07893
   C      -11.85253        13.09630        -2.72475
   C      -11.81566        14.43578        -3.07679
   C      -12.91063        15.22994        -2.77766
   C      -10.87593        12.03878        -2.90633
   C      -11.40163        10.84887        -2.37528
   C      -12.77793        11.08553        -1.79901
   C      -13.84124        10.22773        -2.50917
   C      -13.87380        10.45564        -4.01562
   C      -12.80649        10.79456        -0.28659
   C      -11.77777        11.60661         0.49102
   C      -10.68387         9.67959        -2.41801
   C       -9.40617         9.67279        -2.99779
   C       -8.89220        10.87001        -3.51290
   C       -9.61251        12.04764        -3.47601
   C       -8.59709         8.47893        -3.08592
   C       -8.97399         7.23698        -2.74348
   N       -8.14272         6.15037        -2.86366
   C       -8.45847         4.87260        -2.56946
   S      -10.02060         4.45835        -1.94203
   C       -9.53358         2.78878        -1.87091
   N      -10.46264         1.86048        -1.43570
   O      -10.12925         0.68112        -1.41808
   O      -11.56418         2.27902        -1.10368
   C       -8.24759         2.58156        -2.29711
   C       -7.60269         3.76162        -2.70803
   C       -6.27203         3.83148        -3.22929
   C       -5.39732         2.79247        -3.21011
   C       -4.11211         2.81069        -3.77966
   C       -3.26479         1.73340        -3.73915
   C       -1.98932         1.60884        -4.34333
   C       -1.40088         0.39415        -4.16571
   C       -2.16575        -0.50621        -3.39041
   S       -3.67085         0.24116        -2.90234
   C       -1.85548        -1.80081        -3.03020
   C       -0.74142        -2.57086        -3.43652
   C       -0.73149        -3.83978        -2.94837
   C       -1.83132        -4.14163        -2.10079
   S       -2.88866        -2.73871        -1.97118
   C       -2.13930        -5.29699        -1.44310
   N       -1.42799        -6.44583        -1.59072
   C       -1.66002        -7.66956        -1.04315
   S       -0.29844        -8.76461        -1.03724
   C       -1.23959        -9.92488        -0.15811
   N       -0.63633       -11.13593         0.16341
   O       -1.29189       -11.95549         0.78647
   O        0.52078       -11.28843        -0.20621
   C       -2.51085        -9.48402         0.10368
   C       -2.79003        -8.20726        -0.41683
   C       -4.13193        -7.66692        -0.29325
   C       -4.78971        -6.87960        -1.15416
   C       -6.15109        -6.41615        -0.92835
   C       -6.51871        -5.13126        -1.35296
   C       -7.78191        -4.65925        -1.07733
   C       -8.72138        -5.49912        -0.45171
   C       -8.37633        -6.78184        -0.05656
   C       -7.08762        -7.22318        -0.27890
   C       -9.98778        -4.80435        -0.37010
   C       -9.83152        -3.52593        -0.92579
   C       -8.39943        -3.30919        -1.37384
   C       -8.31546        -2.93837        -2.86139
   C       -9.00564        -3.96263        -3.75484
   C       -7.81457        -2.18755        -0.48421
   C       -6.33312        -1.88702        -0.67510
   C      -10.88943        -2.64911        -0.98081
   C      -12.13987        -3.05139        -0.49522
   C      -12.28283        -4.33625         0.03937
   C      -11.21954        -5.21349         0.11647
   C      -13.30803        -2.18109        -0.52927
   C      -13.31139        -0.87899        -0.79014
   H      -14.86337        15.33323        -1.91498
   H      -14.93014        12.94997        -1.28763
   H      -10.95283        14.85346        -3.57412
   H      -12.90165        16.27682        -3.04403
   H      -14.81983        10.46371        -2.08610
   H      -13.63552         9.17464        -2.30583
   H      -14.10125        11.49503        -4.24154
   H      -14.63598         9.82872        -4.47241
   H      -12.91257        10.21058        -4.46219
   H      -12.62075         9.72967        -0.13111
   H      -13.80565        11.01788         0.09297
   H      -10.77125        11.38818         0.14078
   H      -11.83387        11.36593         1.55017
   H      -11.95878        12.67225         0.36964
   H      -11.09779         8.77424        -2.00227
   H       -7.90588        10.86570        -3.95544
   H       -9.19569        12.95652        -3.88358
   H       -7.59772         8.62093        -3.48093
   H       -9.95420         7.00584        -2.35757
   H       -7.20847         6.32382        -3.21368
   H       -7.81209         1.60001        -2.31981
   H       -5.95396         4.76373        -3.67891
   H       -5.68811         1.86697        -2.73281
   H       -3.77755         3.69971        -4.29751
   H       -1.55397         2.42025        -4.89969
   H       -0.43731         0.12556        -4.56036
   H        0.01310        -2.17064        -4.08957
   H        0.04328        -4.55399        -3.16780
   H       -2.98331        -5.33346        -0.77592
   H       -0.57304        -6.37560        -2.12888
   H       -3.22640       -10.08683         0.63370
   H       -4.65503        -8.01898         0.58630
   H       -4.31302        -6.52392        -2.05871
   H       -5.79442        -4.52243        -1.87567
   H       -9.10313        -7.42752         0.41341
   H       -6.80941        -8.22497         0.01313
   H       -7.26704        -2.85914        -3.15375
   H       -8.78270        -1.96145        -2.99892
   H       -8.55354        -4.94487        -3.63198
   H       -8.91886        -3.67105        -4.79951
   H      -10.06137        -4.03874        -3.50495
   H       -7.98234        -2.46760         0.55920
   H       -8.39599        -1.28389        -0.67955
   H       -5.72145        -2.74420        -0.40679
   H       -6.04709        -1.05798        -0.03102
   H       -6.10691        -1.60558        -1.70018
   H      -10.76021        -1.66297        -1.39637
   H      -13.25164        -4.64241         0.40971
   H      -11.34813        -6.19796         0.54226
   H      -14.24495        -2.67594        -0.30004
   H      -12.41247        -0.32845        -0.99935
   H      -14.22430        -0.30797        -0.78534
*
