# ORCA input file
# SCF done       -169.908822620107          0.000965737864
! CAM-B3LYP def2-SVP def2/J RIJCOSX Grid4 TightSCF
%maxcore 5000
%tddft
    Mode sTDDFT
    Ethresh 5.0
    maxcore 5000
end

%pal
  nprocs 6
  end
* xyz 0 1
   C        9.68513        -7.42782         1.83740
   C        9.45645        -8.77034         1.95532
   F       10.08764        -9.46792         2.92113
   C        8.58423        -9.46155         1.10526
   C        7.93537        -8.76907         0.12024
   C        8.13228        -7.38358        -0.04538
   C        9.02307        -6.69910         0.83064
   C        9.22816        -5.30567         0.69221
   C        8.56475        -4.62550        -0.29108
   C        7.68504        -5.31690        -1.17269
   C        7.46440        -6.65777        -1.05913
   C        7.12458        -4.35645        -2.14798
   O        6.31291        -4.57763        -3.02196
   C        7.80976        -3.07538        -1.86980
   C        8.53778        -3.20587        -0.63800
   C        8.89869        -2.18263         0.21076
   C        8.53738        -0.83991        -0.00612
   N        8.21400         0.25639        -0.12632
   C        9.58270        -2.36891         1.42410
   N       10.17971        -2.46155         2.40218
   C        7.72744        -2.04845        -2.78230
   C        8.61051        -0.98782        -2.99128
   S       10.24552        -0.98538        -2.39130
   C       10.62435         0.53950        -3.11755
   C        9.51078         1.03576        -3.82721
   C        8.38378         0.16642        -3.77317
   C        7.19212         0.52090        -4.42388
   C        7.14308         1.70165        -5.11380
   F        6.01670         2.05677        -5.75099
   C        8.25891         2.56129        -5.17033
   F        8.16402         3.71178        -5.85856
   C        9.42977         2.24367        -4.53941
   C       11.87988         1.14986        -2.94188
   C       12.91185         0.59166        -2.25222
   C       14.14035         1.26099        -2.01452
   C       15.23367         0.76006        -1.39802
   C       15.37282        -0.62696        -0.86533
   C       16.39524         1.66704        -1.09004
   N       16.33089         2.01544         0.31907
   C       16.95814         1.28473         1.26727
   C       16.53886         1.17579         2.55969
   C       17.26471         0.50902         3.55713
   C       16.81194         0.29914         4.83794
   C       17.49471        -0.34012         5.89629
   C       16.77830        -0.42661         7.05507
   C       15.48549         0.12709         6.96969
   S       15.21121         0.79081         5.37856
   C       14.50152         0.15979         7.94699
   C       14.57560        -0.29853         9.27503
   C       13.41479        -0.13506         9.97690
   C       12.36565         0.45100         9.23678
   S       12.90908         0.80699         7.61292
   C       11.09100         0.70507         9.70466
   C       10.01832         1.24184         9.00227
   C        8.72040         1.49155         9.50679
   C        7.84063         2.03498         8.52072
   N        6.55838         2.35397         8.77114
   C        6.11873         2.14595         9.98161
   C        6.89526         1.61397        11.02831
   C        8.20711         1.28312        10.79342
   C        8.44707         2.20054         7.26640
   S       10.09837         1.69275         7.31883
   C        7.81528         2.70345         6.09322
   C        8.40304         2.82611         4.89978
   H       10.36097        -6.92689         2.51288
   H        8.44274       -10.52147         1.24563
   H        7.25799        -9.27989        -0.54761
   H        9.91094        -4.81212         1.36572
   H        6.78545        -7.16171        -1.73060
   H        6.91085        -2.13803        -3.49151
   H        6.32153        -0.11284        -4.38819
   H       10.26474         2.92221        -4.59645
   H       12.00570         2.13188        -3.37706
   H       12.77336        -0.40117        -1.84805
   H       14.18803         2.28374        -2.37138
   H       14.45353        -1.19589        -0.94744
   H       15.67093        -0.59940         0.18521
   H       16.15540        -1.15514        -1.41188
   H       16.34595         2.58676        -1.67902
   H       17.35206         1.17458        -1.27678
   H       15.44791         2.42449         0.60024
   H       17.87877         0.81209         0.94978
   H       15.59243         1.61798         2.84328
   H       18.24396         0.12169         3.30751
   H       18.49500        -0.71630         5.77138
   H       17.14235        -0.88238         7.95825
   H       15.47167        -0.73096         9.68257
   H       13.28189        -0.42582        11.00427
   H       10.90614         0.44471        10.73899
   H        5.08398         2.41187        10.15572
   H        6.45324         1.47207        12.00204
   H        8.82765         0.87348        11.57759
   H        6.78151         2.98540         6.24207
   H        9.43100         2.53926         4.74763
   H        7.87272         3.20664         4.04571
*
