# ORCA input file
# SCF done       -210.373921789679          0.000762449396
! CAM-B3LYP def2-SVP def2/J RIJCOSX Grid4 TightSCF
%maxcore 5000
%tddft
    Mode sTDDFT
    Ethresh 5.0
    maxcore 5000
end

%pal
  nprocs 6
  end
* xyz 0 1
   C        3.78829        -7.80688        -2.41230
   C        2.74624        -8.63472        -2.09839
   F        2.15107        -9.34791        -3.07114
   C        2.26505        -8.77434        -0.78965
   C        2.85614        -8.05622         0.21248
   C        3.93320        -7.18695        -0.05503
   C        4.41092        -7.06248        -1.39208
   C        5.49961        -6.20683        -1.68360
   C        6.08492        -5.49798        -0.67040
   C        5.58713        -5.60820         0.66014
   C        4.54547        -6.43286         0.97134
   C        6.35579        -4.70902         1.54018
   O        6.24983        -4.56487         2.73744
   C        7.27201        -3.96125         0.63654
   C        7.22363        -4.58079        -0.66466
   C        8.18443        -4.51695        -1.64506
   C        9.40625        -3.83274        -1.51531
   N       10.43452        -3.32422        -1.45130
   C        8.10563        -5.21278        -2.86822
   N        8.08826        -5.74143        -3.88684
   C        7.94087        -2.87716         1.13698
   C        8.58908        -1.82411         0.47214
   S        9.86735        -0.98412         1.29293
   C       10.27512        -0.03654        -0.08858
   C        9.35510        -0.26286        -1.13085
   C        8.39852        -1.27413        -0.81023
   C        7.35420        -1.56131        -1.70606
   C        7.30287        -0.89606        -2.89951
   F        6.31078        -1.15493        -3.76173
   C        8.25549         0.09209        -3.22392
   F        8.14644         0.74450        -4.39092
   C        9.25484         0.42552        -2.35230
   C       11.44462         0.76390        -0.03940
   C       12.19677         1.12052        -1.10866
   C       13.38226         1.92827        -1.03070
   C       13.54220         2.85190        -0.00349
   C       14.65888         3.66065         0.08045
   C       15.70045         3.59924        -0.84373
   C       15.57033         2.66607        -1.92616
   C       14.41757         1.83239        -2.01379
   C       14.38192         0.90225        -3.07341
   C       15.40355         0.85493        -3.98503
   C       16.47174         1.74473        -3.82420
   N       16.55190         2.59831        -2.84088
   C       16.82461         4.45521        -0.63183
   C       17.98662         4.48563        -1.33502
   C       19.07136         5.32865        -1.02436
   S       19.02719         6.48083         0.26648
   C       20.66099         6.99823         0.00029
   C       21.22977         6.29295        -1.08023
   C       20.32921         5.35400        -1.66202
   C       20.73904         4.56829        -2.75293
   C       22.00680         4.72571        -3.23815
   F       22.41898         3.99046        -4.28194
   C       22.90007         5.65503        -2.66184
   F       24.13246         5.77590        -3.17554
   C       22.52818         6.43083        -1.59933
   C       21.28504         7.93726         0.83231
   C       20.65716         8.63894         1.82376
   C       21.27403         9.56180         2.68821
   C       22.58875         9.70911         3.04632
   C       23.01378        11.01016         3.63082
   O       22.28783        11.91051         3.99014
   C       24.48802        10.98047         3.63226
   C       25.36881        11.96553         3.97287
   C       26.75581        11.71293         3.87732
   C       27.20207        10.44038         3.41655
   C       28.58534        10.19557         3.31829
   C       29.46738        11.17878         3.67107
   C       29.04870        12.43563         4.12806
   C       27.70920        12.69105         4.22627
   F       30.78952        10.94578         3.58129
   C       26.26499         9.43743         3.07321
   C       24.92730         9.69989         3.19057
   C       23.75163         8.86005         2.95674
   C       23.78088         7.48668         2.91526
   C       22.64027         6.66318         2.92726
   N       21.74930         5.93905         2.95686
   C       24.96547         6.72361         2.92960
   N       25.89407         6.04830         2.91784
   H        4.13478        -7.72694        -3.43075
   H        1.44041        -9.44349        -0.60196
   H        2.50282        -8.14648         1.22860
   H        5.83561        -6.12723        -2.70524
   H        4.19135        -6.50912         1.98839
   H        7.94652        -2.82453         2.22260
   H        6.57576        -2.26239        -1.45470
   H        9.91990         1.23607        -2.59854
   H       11.79383         1.00254         0.95660
   H       11.92153         0.73406        -2.07745
   H       12.76014         2.96474         0.73173
   H       14.73105         4.36680         0.89517
   H       13.55625         0.21370        -3.16564
   H       15.39433         0.15166        -4.80252
   H       17.29777         1.75200        -4.52420
   H       16.73070         5.12766         0.21470
   H       18.09870         3.81307        -2.17129
   H       20.07566         3.85180        -3.20815
   H       23.23307         7.13141        -1.18290
   H       22.33198         8.12812         0.63727
   H       19.58345         8.53518         1.91530
   H       20.62453        10.32436         3.10949
   H       25.01246        12.92592         4.31401
   H       28.94364         9.23789         2.97433
   H       29.79081        13.17228         4.39204
   H       27.36225        13.65179         4.57578
   H       26.63351         8.48752         2.72007
*
