# ORCA input file
# SCF done       -198.613280519857          0.000969581201
! CAM-B3LYP def2-SVP def2/J RIJCOSX Grid4 TightSCF
%maxcore 5000
%tddft
    Mode sTDDFT
    Ethresh 5.0
    maxcore 5000
end

%pal
  nprocs 6
  end
* xyz 0 1
   C       -5.38541        -2.24270         4.77584
   C       -5.95622        -2.77030         5.90562
   C       -5.75607        -4.09654         6.34505
   N       -5.64190        -5.15943         6.76381
   C       -6.79377        -2.10010         6.82338
   N       -7.46993        -1.65143         7.63720
   C       -4.45401        -2.95545         3.91182
   C       -3.96633        -2.05354         2.93834
   C       -3.05715        -2.41793         1.97506
   C       -2.60965        -3.74260         1.96945
   C       -3.10737        -4.64111         2.94310
   C       -4.02384        -4.27022         3.91852
   S       -2.42926        -6.22995         2.75248
   C       -1.49878        -5.67242         1.38719
   C       -1.68481        -4.36519         1.08706
  Br       -0.37180        -6.86991         0.48478
   C       -4.58422        -0.72697         3.13305
   O       -4.34061         0.25241         2.45819
   C       -5.53258        -0.88345         4.26210
   C       -6.49115        -0.03193         4.73537
   C       -6.84294         1.32799         4.46906
   C       -6.08369         2.22527         3.69536
   C       -6.51441         3.51890         3.54836
   C       -7.70390         3.96172         4.15379
   C       -8.46765         3.08746         4.92050
   C       -8.03052         1.79296         5.07583
   C       -7.87663         5.36208         3.85563
   C       -6.79339         5.79377         3.06666
   C       -5.87487         4.63549         2.74994
   C       -4.42657         4.89879         3.18658
   C       -4.31187         5.17137         4.68213
   C       -5.95480         4.22525         1.25966
   C       -5.47949         5.26790         0.25619
   C       -6.68262         7.11868         2.71981
   C       -7.67601         8.03317         3.10603
   C       -8.76079         7.57656         3.86698
   C       -8.86130         6.25706         4.25259
   C       -7.53405         9.40671         2.67868
   C       -8.46223        10.36887         2.79859
   N       -8.36143        11.65696         2.30854
   C       -7.46412        12.16594         1.41543
   S       -6.94795        13.81104         1.65962
   C       -5.96475        13.70882         0.23361
   N       -5.25127        14.84265        -0.15234
   O       -4.55943        14.76617        -1.15398
   O       -5.37172        15.83756         0.54731
   C       -6.03561        12.48780        -0.37882
   C       -6.90705        11.58280         0.26531
   C       -7.23685        10.28058        -0.23239
   C       -6.63346         9.68457        -1.29489
   C       -6.92532         8.38126        -1.73377
   C       -6.34247         7.80500        -2.83550
   C       -6.50850         6.48173        -3.31049
   C       -5.80219         6.19844        -4.44171
   C       -5.05606         7.28696        -4.94017
   S       -5.25096         8.68042        -3.89773
   C       -4.29446         7.35166        -6.09216
   C       -4.00100         6.31586        -7.00643
   C       -3.24462         6.71623        -8.06543
   C       -2.90988         8.09432        -8.06660
   S       -3.57063         8.85111        -6.62445
   C       -2.20755         8.74140        -9.04987
   C       -1.90421        10.11551        -9.15695
   C       -2.21507        11.17537        -8.30004
   C       -1.73257        12.37800        -8.87350
   C       -1.79955        13.68557        -8.44412
   C       -1.23304        14.67154        -9.26678
   C       -1.14464        16.04981        -9.13128
   C       -0.46612        16.59291       -10.26677
   C       -0.13309        15.54582       -11.10731
   C       -0.59300        14.32411       -10.52351
   C       -0.51986        13.02606       -10.95217
   C       -1.09469        12.03175       -10.13106
   C       -1.20219        10.66400       -10.28590
   C       -0.21033        18.00356       -10.44005
   C        0.41620        18.55413       -11.47601
   H       -2.70421        -1.70312         1.24823
   H       -4.37288        -4.99459         4.63473
   H       -1.19127        -3.85917         0.27753
   H       -7.15077        -0.47805         5.47147
   H       -5.17098         1.89473         3.23160
   H       -9.38006         3.41947         5.39231
   H       -8.60846         1.10774         5.67947
   H       -4.03897         5.75865         2.63909
   H       -3.81988         4.02947         2.92640
   H       -4.91131         6.03536         4.96205
   H       -3.27631         5.37078         4.94778
   H       -4.65509         4.31521         5.25876
   H       -6.99584         3.97330         1.03833
   H       -5.36322         3.31552         1.13825
   H       -6.09904         6.15992         0.29103
   H       -5.54115         4.85503        -0.74859
   H       -4.44591         5.55029         0.43573
   H       -5.83692         7.47731         2.15208
   H       -9.52566         8.27053         4.17855
   H       -9.69133         5.92635         4.85881
   H       -6.60150         9.64462         2.18606
   H       -9.39577        10.19805         3.31434
   H       -8.88170        12.35489         2.82333
   H       -5.49515        12.27975        -1.28358
   H       -8.02607         9.74674         0.27497
   H       -5.86273        10.20836        -1.84367
   H       -7.63590         7.79000        -1.17114
   H       -7.14481         5.78130        -2.79865
   H       -5.81200         5.24394        -4.93745
   H       -4.34937         5.30973        -6.85611
   H       -2.92379         6.06635        -8.86098
   H       -1.86312         8.11743        -9.86642
   H       -2.73433        11.11359        -7.36347
   H       -2.27483        13.95058        -7.51054
   H       -1.52231        16.63075        -8.30871
   H        0.38318        15.61547       -12.04623
   H       -0.04628        12.75831       -11.88665
   H       -0.83275        10.08386       -11.11348
   H       -0.57582        18.63608        -9.64032
   H        0.79683        17.96557       -12.29318
   H        0.57194        19.61700       -11.54055
*
