# ORCA input file
# SCF done       -199.565981823960          0.000720918973
! CAM-B3LYP def2-SVP def2/J RIJCOSX Grid4 TightSCF
%maxcore 5000
%tddft
    Mode sTDDFT
    Ethresh 5.0
    maxcore 5000
end

%pal
  nprocs 6
  end
* xyz 0 1
   C       -7.69761        -1.51329        -5.16278
   C       -6.52157        -2.20732        -5.26813
   C       -6.36146        -3.36727        -6.05537
   N       -6.17480        -4.31009        -6.68265
   C       -5.33537        -1.90559        -4.56377
   N       -4.35117        -1.74664        -3.99532
   C       -8.96936        -1.89756        -5.76508
   C       -9.98418        -1.04148        -5.26836
   C      -11.30271        -1.16000        -5.63655
   C      -11.63596        -2.16850        -6.54623
   C      -10.61543        -3.01513        -7.04318
   C       -9.28295        -2.89813        -6.66539
   S      -11.24494        -4.18658        -8.15964
   C      -12.84833        -3.53452        -7.94702
   C      -12.91121        -2.49227        -7.08417
  Br      -14.28601        -4.28891        -8.88457
   C       -9.38329        -0.06229        -4.34972
   O       -9.97378         0.79956        -3.72322
   C       -7.93610        -0.32271        -4.36586
   C       -6.97386         0.49425        -3.83563
   C       -7.12402         1.65363        -3.05302
   S       -8.59223         2.29471        -2.37253
   C       -7.73659         3.58330        -1.57739
   C       -6.36287         3.53840        -1.86137
   C       -6.02642         2.44789        -2.68098
   C       -4.71167         2.19942        -3.11788
   N       -3.64404         2.01486        -3.49166
   C       -5.39343         4.45253        -1.41581
   N       -4.57858         5.18389        -1.07211
   C       -8.47848         4.49476        -0.79706
   C       -7.95316         5.51689        -0.06028
   C       -8.68234         6.42662         0.72685
   S       -7.85066         7.25903         1.99866
   C       -9.30245         7.96880         2.63858
   C      -10.40801         7.64351         1.80802
   C      -10.04740         6.79164         0.71864
   C      -10.99126         6.48615        -0.27631
   C      -12.27154         6.94917        -0.14758
   F      -13.17993         6.67565        -1.09776
   C      -12.64419         7.74248         0.95176
   F      -13.91091         8.17729         1.04840
   C      -11.72894         8.11287         1.90004
   C       -9.19734         8.72274         3.81434
   C      -10.23961         9.09978         4.62648
   C      -10.14458         9.90441         5.75889
   C      -11.26730        10.23678         6.49578
   C      -11.37751        11.03061         7.65640
   C      -12.65467        11.15685         8.13280
   C      -13.61281        10.46530         7.36740
   S      -12.85307         9.66147         6.02190
   C      -14.97804        10.29826         7.54916
   C      -15.84711        10.72222         8.57201
   C      -17.11250        10.21992         8.45111
   C      -17.29588         9.35207         7.34692
   S      -15.83274         9.28843         6.40976
   C      -18.45633         8.67802         7.00348
   C      -18.64908         7.74300         5.98661
   C      -17.76791         6.96196         5.25837
   C      -18.21259         6.45249         3.93234
   O      -19.33444         6.49732         3.47865
   C      -16.99404         5.92205         3.28321
   C      -16.82640         5.42649         2.02372
   C      -15.54436         4.98130         1.62220
   C      -14.45451         5.08391         2.53335
   C      -13.17933         4.64668         2.12640
   C      -13.02080         4.11713         0.87656
   C      -14.07867         3.99808        -0.03166
   C      -15.32019         4.43390         0.34333
   F      -11.79291         3.70518         0.48588
   C      -14.65834         5.60500         3.83291
   C      -15.91272         5.99948         4.20580
   C      -16.42450         6.51827         5.47257
   C      -15.76341         6.42585         6.68024
   C      -16.37959         6.67369         7.91938
   N      -16.85055         6.86262         8.94991
   C      -14.42149         6.03000         6.82051
   N      -13.31660         5.76623         6.99500
   H      -12.05256        -0.49533        -5.23718
   H       -8.54271        -3.56525        -7.07418
   H      -13.81849        -1.97196        -6.83714
   H       -5.93859         0.25164        -4.05150
   H       -9.53832         4.29262        -0.75545
   H       -6.87747         5.61727        -0.00388
   H      -10.72125         5.92692        -1.15496
   H      -12.04757         8.78865         2.67354
   H       -8.19174         8.98870         4.11597
   H      -11.22705         8.72433         4.40492
   H       -9.18625        10.29641         6.06932
   H      -10.51463        11.48167         8.11394
   H      -12.92366        11.71846         9.00937
   H      -15.52012        11.36065         9.37284
   H      -17.90868        10.40916         9.14849
   H      -19.33892         8.96886         7.55946
   H      -19.67771         7.63235         5.65194
   H      -17.65929         5.36768         1.33938
   H      -12.33892         4.72328         2.79929
   H      -13.89213         3.57864        -1.00721
   H      -16.14953         4.36309        -0.34368
   H      -13.81388         5.67599         4.49987
*
