# ORCA input file
# SCF done       -175.174216565700          0.000621063222
! CAM-B3LYP def2-SVP def2/J RIJCOSX Grid4 TightSCF
%maxcore 5000
%tddft
    Mode sTDDFT
    Ethresh 5.0
    maxcore 5000
end

%pal
  nprocs 6
  end
* xyz 0 1
   C       -8.87017        -0.67763         1.96845
   C       -8.24347        -1.61829         2.75664
   C       -8.75256        -2.90782         3.00160
   N       -9.10942        -3.97355         3.24116
   C       -7.02198        -1.44522         3.43406
   N       -6.03237        -1.38925         4.01875
   C      -10.14114        -0.88239         1.27535
   C      -10.47255         0.30749         0.58292
   C      -11.60650         0.43346        -0.17884
   C      -12.46082        -0.67253        -0.26337
   C      -12.12521        -1.85481         0.43372
   C      -10.97528        -1.98096         1.20571
   S      -13.31618        -3.09828         0.19297
   C      -14.23411        -2.02522        -0.82941
   C      -13.68075        -0.79951        -0.98306
  Br      -15.83778        -2.62464        -1.59780
   C       -9.41583         1.31040         0.82407
   O       -9.40046         2.45208         0.38830
   C       -8.42367         0.65994         1.67130
   C       -7.22820         1.21310         2.09754
   C       -6.66859         2.45912         1.86326
   S       -7.38554         3.75772         0.94743
   C       -6.01109         4.78154         1.16988
   C       -5.00802         4.14895         1.93670
   C       -5.38343         2.84401         2.34045
   C       -4.50143         2.09135         3.12909
   C       -3.28876         2.60686         3.50760
   C       -2.33521         1.82624         4.35081
   C       -2.91703         3.91831         3.09533
   O       -1.69298         4.32315         3.52902
   C       -1.23959         5.60424         3.17116
   C       -3.76461         4.67675         2.32272
   C       -5.96053         6.07366         0.59968
   C       -7.01754         6.67403        -0.00454
   C       -6.95112         7.95565        -0.62127
   C       -8.01113         8.64515        -1.08805
   C       -9.42130         8.14942        -0.98281
   C       -7.81940         9.97198        -1.77524
   N       -8.47062         9.98814        -3.06530
   C       -9.62507        10.65139        -3.30628
   C      -10.48013        10.37326        -4.32573
   C      -11.61690        11.14996        -4.61247
   C      -12.54682        10.84868        -5.57373
   C      -13.68963        11.60324        -5.92905
   C      -14.45000        11.04484        -6.91248
   C      -13.96196         9.80748        -7.38407
   S      -12.48024         9.38563        -6.55339
   C      -14.52472         8.97671        -8.33530
   C      -15.69468         9.18938        -9.09492
   C      -16.00129         8.16109        -9.93401
   C      -15.10009         7.06812        -9.88512
   S      -13.82287         7.42261        -8.73157
   C      -15.21437         5.90745       -10.60664
   C      -14.38019         4.77014       -10.57632
   C      -13.22342         4.52177        -9.83894
   C      -12.76374         3.21347       -10.14346
   C      -11.68574         2.49529        -9.68516
   C      -11.50524         1.19118       -10.18429
   C      -10.54338         0.23300        -9.92324
   C      -10.82570        -0.93925       -10.70299
   C      -11.96347        -0.69675       -11.44367
   C      -12.42990         0.62656       -11.15431
   C      -13.50186         1.33687       -11.61471
   C      -13.68690         2.64686       -11.11362
   C      -14.65255         3.59488       -11.36685
   C      -10.06562        -2.16509       -10.72175
   C       -8.96715        -2.40729       -10.01110
   H      -11.82915         1.35321        -0.69672
   H      -10.76504        -2.90630         1.71491
   H      -14.11164        -0.01660        -1.57987
   H       -6.60603         0.56704         2.70049
   H       -4.76771         1.09684         3.45331
   H       -2.74608         0.85150         4.59652
   H       -2.11968         2.36931         5.26968
   H       -1.39071         1.69769         3.82429
   H       -0.25328         5.70437         3.62143
   H       -1.89664         6.38771         3.56297
   H       -1.15303         5.71145         2.08488
   H       -3.49697         5.67219         2.00895
   H       -5.01903         6.60430         0.66238
   H       -7.96231         6.15013        -0.02392
   H       -5.96574         8.39907        -0.70158
   H       -9.54653         7.20765        -1.51670
   H      -10.12110         8.87180        -1.39612
   H       -9.68439         7.97179         0.05881
   H       -6.75051        10.17194        -1.91022
   H       -8.24478        10.77979        -1.17118
   H       -8.29143         9.17997        -3.64572
   H       -9.82169        11.48364        -2.64247
   H      -10.29161         9.51452        -4.95659
   H      -11.77815        12.05011        -4.03336
   H      -13.91246        12.53868        -5.44598
   H      -15.35127        11.48322        -7.30232
   H      -16.27565        10.08983        -9.00436
   H      -16.85641         8.14670       -10.58734
   H      -16.06648         5.85345       -11.27407
   H      -12.74305         5.18954        -9.15060
   H      -10.99537         2.90840        -8.96339
   H       -9.71626         0.34218        -9.24595
   H      -12.43407        -1.37949       -12.12758
   H      -14.19528         0.92520       -12.33523
   H      -15.48740         3.49520       -12.03835
   H      -10.45308        -2.93066       -11.38316
   H       -8.54421        -1.67898        -9.34062
   H       -8.44997        -3.34899       -10.07654
*
