# ORCA input file
# SCF done       -205.208786764915          0.000941993989
! CAM-B3LYP def2-SVP def2/J RIJCOSX Grid4 TightSCF
%maxcore 5000
%tddft
    Mode sTDDFT
    Ethresh 5.0
    maxcore 5000
end

%pal
  nprocs 6
  end
* xyz 0 1
   C      -15.90699         2.49932         0.15544
   C      -16.68748         2.79203         1.24260
   C      -18.09148         2.66334         1.26924
   N      -19.23328         2.57708         1.34503
   C      -16.17858         3.25806         2.47241
   N      -15.80036         3.63903         3.48684
   C      -16.38393         2.01313        -1.13700
   C      -15.27120         1.82204        -1.99790
   C      -15.40003         1.36804        -3.28885
   C      -16.68831         1.08964        -3.75583
   C      -17.79322         1.28382        -2.89163
   C      -17.66204         1.74221        -1.58531
   S      -19.29109         0.88150        -3.67056
   C      -18.42778         0.46300        -5.12680
   C      -17.08471         0.61635        -5.03591
  Br      -19.37871        -0.13455        -6.62796
   C      -14.04870         2.18448        -1.27770
   O      -12.89416         2.14901        -1.69873
   C      -14.46767         2.60606         0.06318
   C      -13.55239         3.01864         1.00100
   N      -12.25199         3.03349         0.68526
   C      -11.20259         3.40072         1.45825
   S      -11.40069         3.94187         3.09276
   C       -9.68092         4.13488         3.20937
   N       -9.16523         4.60608         4.42900
   O       -7.96264         4.74657         4.51554
   O       -9.97624         4.83752         5.30633
   C       -9.00430         3.80264         2.06874
   C       -9.86402         3.37535         1.03583
   C       -9.47112         2.97123        -0.28265
   C       -8.20554         2.84382        -0.73136
   C       -7.90186         2.44002        -2.06286
   C       -6.63601         2.24486        -2.60015
   C       -5.47794         2.44307        -1.83009
   N       -4.56563         2.61869        -1.15856
   C       -6.67529         1.83802        -3.96050
   C       -7.98691         1.74167        -4.41422
   S       -9.16964         2.12717        -3.23010
   S       -8.16566         1.25242        -6.06797
   C       -6.43929         1.16701        -6.16828
   C       -5.75693         1.49607        -4.99795
   C       -4.35740         1.39185        -5.17808
   C       -3.37585         1.64869        -4.21101
   N       -2.53320         1.84619        -3.45776
   C       -4.00779         0.98790        -6.47393
   S       -5.41927         0.73594        -7.48330
   C       -2.69483         0.79706        -6.93473
   C       -2.30660         0.40775        -8.19073
   C       -0.96844         0.21971        -8.62778
   C       -0.85309        -0.16694        -9.92699
   C       -2.09341        -0.30687       -10.59198
   S       -3.41170         0.06852        -9.50853
   C       -2.33521        -0.67997       -11.90093
   C       -1.40120        -1.00434       -12.90995
   C       -1.97589        -1.33125       -14.10181
   C       -3.39030        -1.28038       -14.09526
   S       -3.96741        -0.81006       -12.51527
   C       -4.23336        -1.57788       -15.14603
   C       -5.62066        -1.48682       -15.05590
   C       -6.56593        -1.82825       -15.99499
   C       -7.93299        -1.26545       -15.87432
   O       -8.39548        -0.68308       -14.91702
   C       -8.57810        -1.52259       -17.17632
   C       -9.80458        -1.12424       -17.62157
   C      -10.20707        -1.46709       -18.93226
   C       -9.31988        -2.21424       -19.75993
   C       -9.72348        -2.54796       -21.06698
   C      -10.95484        -2.15263       -21.51084
   C      -11.84187        -1.41891       -20.71209
   C      -11.46476        -1.08466       -19.44097
   F      -11.34287        -2.47252       -22.75930
   C       -8.05519        -2.61777       -19.26875
   C       -7.69260        -2.28348       -17.99296
   C       -6.49006        -2.58622       -17.21454
   C       -5.58463        -3.57458       -17.52210
   C       -4.60318        -4.06222       -16.63708
   N       -3.81493        -4.53226       -15.94607
   C       -5.59907        -4.30418       -18.72727
   N       -5.54627        -4.91526       -19.69843
   H      -14.53485         1.23238        -3.91874
   H      -18.53452         1.87348        -0.96740
   H      -16.40152         0.40483        -5.83806
   H      -13.83291         3.33717         1.99661
   H      -12.06987         2.71111        -0.28573
   H       -7.93496         3.87539         1.99364
   H      -10.26865         2.74774        -0.98010
   H       -7.35370         3.03553        -0.09449
   H       -1.91277         0.98066        -6.20833
   H       -0.13960         0.37778        -7.96097
   H        0.08190        -0.35540       -10.42260
   H       -0.34102        -0.98671       -12.73254
   H       -1.43182        -1.61535       -14.98470
   H       -3.76855        -1.86999       -16.07605
   H       -6.02571        -1.01542       -14.16417
   H      -10.46178        -0.55470       -16.98160
   H       -9.06752        -3.11488       -21.70904
   H      -12.80049        -1.13462       -21.11621
   H      -12.13071        -0.51951       -18.80622
   H       -7.40326        -3.17627       -19.92140
*
