# ORCA input file
# SCF done       -217.170265946010          0.000970425927
! CAM-B3LYP def2-SVP def2/J RIJCOSX Grid4 TightSCF
%maxcore 5000
%tddft
    Mode sTDDFT
    Ethresh 5.0
    maxcore 5000
end

%pal
  nprocs 6
  end
* xyz 0 1
   C       -7.77019         8.86771         0.04193
   C       -6.65087         8.75143        -0.74202
   C       -5.59471         9.68712        -0.76789
   N       -4.70260        10.40575        -0.83389
   C       -6.40260         7.69868        -1.63902
   N       -6.13765         6.87897        -2.40113
   C       -8.05729         9.96092         0.96429
   C       -9.32581         9.74136         1.56472
   C       -9.86700        10.60218         2.48866
   C       -9.12427        11.73504         2.83858
   C       -7.86122        11.94760         2.23369
   C       -7.31377        11.07676         1.29909
   S       -7.11362        13.40402         2.81051
   C       -8.48576        13.70556         3.84289
   C       -9.45697        12.76362         3.76005
  Br       -8.50777        15.23102         4.93115
   C       -9.89036         8.49350         1.03771
   O      -10.95758         7.96811         1.32595
   C       -8.89263         7.96020         0.09995
   C       -9.07756         6.76899        -0.54759
   N      -10.20857         6.06513        -0.37855
   C      -10.54164         4.89870        -0.99894
   S      -11.62635         3.80053        -0.21222
   C      -11.40496         2.67620        -1.51446
   N      -12.12149         1.46749        -1.45934
   O      -11.97195         0.68143        -2.37142
   O      -12.84016         1.30880        -0.49038
   C      -10.54528         3.11832        -2.48261
   C      -10.05133         4.41000        -2.21374
   C       -9.22917         5.19422        -3.10530
   C       -8.31771         4.66095        -3.93559
   C       -7.41709         5.36224        -4.81281
   C       -6.52477         4.59186        -5.58512
   C       -6.40283         3.11590        -5.67807
   O       -7.03599         2.24411        -5.13925
   N       -5.35221         2.86476        -6.57094
   C       -4.78977         4.03828        -7.06357
   O       -3.87841         4.12370        -7.84800
   C       -5.54803         5.13767        -6.41859
   C       -5.37502         6.49998        -6.56175
   C       -6.25761         7.27297        -5.82466
   C       -7.24621         6.75842        -4.97827
   C       -7.90709         7.94476        -4.37338
   O       -8.80420         8.04906        -3.58863
   O       -7.30572         9.07022        -4.87303
   C       -6.31767         8.74824        -5.76612
   O       -5.68320         9.56685        -6.35485
   C       -5.02219         1.55063        -6.91864
   C       -4.05885         1.25330        -7.79365
   N       -3.72260        -0.01744        -8.21375
   C       -3.01061        -0.23243        -9.35299
   S       -1.96236        -1.59899        -9.52625
   C       -1.41622        -0.96566       -11.05274
   N       -0.48196        -1.73749       -11.75462
   O       -0.07547        -1.31434       -12.81777
   O       -0.14621        -2.78601       -11.22910
   C       -1.99829         0.22523       -11.39471
   C       -2.94148         0.64858       -10.44136
   C       -3.82516         1.78307       -10.53929
   C       -3.52975         3.01160       -11.01308
   C       -4.45432         4.06501       -10.79391
   C       -4.28769         5.40803       -10.92338
   C       -3.28296         6.21816       -11.57980
   C       -2.55690         5.87241       -12.68849
   C       -1.63302         6.72841       -13.32392
   N       -0.86093         7.38017       -13.86854
   C       -2.71289         4.65435       -13.38299
   N       -2.82811         3.69574       -14.00337
   C       -3.33146         7.54268       -10.97132
   C       -4.44996         7.60509       -10.09969
   C       -5.12862         6.29850       -10.08216
   O       -6.11154         5.98169        -9.44281
   C       -4.76741         8.73923        -9.39105
   C       -3.93741         9.85441        -9.53472
   C       -2.82551         9.78367       -10.40868
   C       -2.50889         8.64154       -11.13452
   S       -1.94284        11.27846       -10.43373
   C       -3.05869        11.96207        -9.27748
   C       -4.04535        11.11810        -8.89432
  Br       -2.80998        13.72459        -8.69318
   H      -10.83267        10.40890         2.92871
   H       -6.34770        11.28141         0.86876
   H      -10.37000        12.79294         4.32609
   H       -8.31610         6.34306        -1.18545
   H      -10.84806         6.47041         0.32620
   H      -10.31513         2.54748        -3.36386
   H       -9.39616         6.25875        -3.07471
   H       -8.18479         3.58857        -3.93286
   H       -4.61173         6.93044        -7.18730
   H       -5.64135         0.81632        -6.42290
   H       -3.47859         2.04074        -8.24947
   H       -3.94445        -0.80593        -7.62186
   H       -1.79055         0.74000       -12.31562
   H       -4.81345         1.62365       -10.12325
   H       -2.55049         3.22223       -11.41169
   H       -5.37233         3.78310       -10.28653
   H       -5.62505         8.77647        -8.73904
   H       -1.64706         8.62892       -11.78109
   H       -4.80823        11.35544        -8.17585
*
