# ORCA input file
# SCF done       -223.201074062681          0.000275238095
! CAM-B3LYP def2-SVP def2/J RIJCOSX Grid4 TightSCF
%maxcore 5000
%tddft
    Mode sTDDFT
    Ethresh 5.0
    maxcore 5000
end

%pal
  nprocs 6
  end
* xyz 0 1
   C        5.57633        -3.08919        14.89997
   C        6.16800        -4.25353        14.60349
   C        7.30260        -4.85164        15.24915
   C        7.67924        -6.04005        14.73131
   C        6.88213        -6.48545        13.63792
   S        5.62123        -5.31270        13.29400
   C        7.02134        -7.64535        12.92199
   C        7.98416        -8.67416        13.09875
   C        7.85358        -9.70550        12.23164
   C        6.77922        -9.57929        11.29799
   S        5.95036        -8.05284        11.59293
   C        6.47059       -10.52342        10.36620
   C        5.43628       -10.56072         9.37609
   C        5.28654       -11.74636         8.62795
   C        4.29989       -11.84074         7.68188
   C        3.43887       -10.75575         7.43685
   C        3.58236        -9.57627         8.15363
   C        4.56954        -9.48854         9.11213
   C        2.49732       -11.13703         6.40870
   C        2.76689       -12.46164         6.02181
   C        3.94777       -13.00972         6.79023
   C        3.55703       -14.24900         7.61605
   C        2.40349       -13.98020         8.57480
   C        5.11212       -13.36573         5.84710
   C        5.55943       -12.18869         4.98881
   C        1.99471       -13.08832         5.07532
   C        0.92708       -12.39692         4.48430
   C        0.68854       -11.06881         4.86317
   C        1.45669       -10.43505         5.81848
   C        0.02060       -13.00389         3.53270
   C       -0.00121       -14.28608         3.13671
   C       -0.99271       -14.85370         2.24032
   C       -0.59593       -15.86579         1.36839
   C       -1.46353       -16.41496         0.44290
   O       -1.08181       -17.50020        -0.32888
   C       -0.04053       -17.34522        -1.18294
   C        0.56983       -18.39063        -1.73273
   O        1.45256       -18.22027        -2.79730
   C        0.68277       -18.22489        -3.93775
   C        0.68130       -17.26422        -4.85464
   O       -0.22330       -17.22401        -5.88826
   C       -1.55884       -17.35288        -5.58726
   C       -2.07872       -17.23382        -4.36839
   O       -3.40613       -17.39394        -4.08761
   C       -3.79941       -17.21648        -2.79234
   C       -3.18350       -16.47698        -1.87249
   O       -3.67376       -16.34940        -0.59845
   C       -2.77349       -15.91813         0.34354
   C       -3.19398       -14.96600         1.25892
   C       -2.34098       -14.43355         2.22127
   C       -2.84519       -13.51300         3.22632
   C       -3.85116       -12.64466         3.06037
   C       -4.33239       -11.72660         4.07696
   C       -5.63653       -11.22357         3.97336
   C       -6.11288       -10.35927         4.92903
   C       -5.29116        -9.95098         5.99196
   C       -3.99293       -10.42871         6.09665
   C       -3.52868       -11.31614         5.14650
   C       -6.03297        -9.02072         6.81373
   C       -7.32362        -8.86978         6.27412
   C       -7.49696        -9.75863         5.06206
   C       -8.46463       -10.93281         5.34185
   C       -9.90243       -10.55086         5.66706
   C       -7.91209        -8.96558         3.81477
   C       -6.89358        -7.89284         3.44604
   C       -8.21013        -7.99093         6.84540
   C       -7.84027        -7.25606         7.98669
   C       -6.55523        -7.43752         8.51911
   C       -5.65341        -8.30522         7.94072
   C       -8.81102        -6.37019         8.57247
   C       -8.56935        -5.42551         9.51502
   C       -9.52403        -4.58506        10.13663
   C      -10.89095        -4.63730        10.09880
   C      -11.74948        -3.75122        10.80979
   C      -13.07364        -4.01844        10.68965
   C      -13.36268        -5.13714         9.86703
   S      -11.87150        -5.81981         9.24246
   C      -14.59084        -5.66749         9.56291
   C      -15.86440        -5.21309        10.00735
   C      -16.90724        -5.94274         9.55507
   C      -16.54089        -7.04121         8.70702
   S      -14.77929        -7.07439         8.53003
   C      -17.35313        -7.92950         8.11887
   H        5.94196        -2.47716        15.70551
   H        4.72602        -2.73040        14.34978
   H        7.78381        -4.35932        16.07576
   H        8.50670        -6.62470        15.09315
   H        8.73859        -8.61671        13.86295
   H        8.49232       -10.57169        12.21966
   H        7.10592       -11.40226        10.38951
   H        5.95074       -12.57794         8.81867
   H        2.92932        -8.73666         7.96816
   H        4.67881        -8.56906         9.66316
   H        4.42955       -14.58090         8.18294
   H        3.27934       -15.05349         6.93141
   H        2.66550       -13.19381         9.27916
   H        2.16508       -14.88080         9.13621
   H        1.51548       -13.66917         8.02894
   H        4.79951       -14.18799         5.19961
   H        5.95386       -13.71613         6.44848
   H        4.74213       -11.83765         4.36265
   H        6.38369       -12.48673         4.34470
   H        5.89143       -11.36252         5.61364
   H        2.20536       -14.10723         4.78827
   H       -0.13018       -10.53529         4.39995
   H        1.24725        -9.41464         6.10278
   H       -0.72100       -12.32894         3.12360
   H        0.77440       -14.96978         3.45496
   H        0.41685       -16.24228         1.40781
   H        0.25145       -16.32959        -1.43481
   H        0.30410       -19.41061        -1.48553
   H       -0.05370       -19.02352        -3.98931
   H        1.41273       -16.46920        -4.88096
   H       -2.14945       -17.50330        -6.47618
   H       -1.43574       -17.07454        -3.51581
   H       -4.71813       -17.74007        -2.57713
   H       -2.29808       -15.89137        -2.08749
   H       -4.22497       -14.65299         1.21459
   H       -2.34577       -13.56753         4.18419
   H       -4.36328       -12.59191         2.10796
   H       -6.25931       -11.53496         3.14635
   H       -3.35244       -10.11301         6.90693
   H       -2.51509       -11.68081         5.22034
   H       -8.05740       -11.50782         6.17803
   H       -8.45855       -11.58255         4.46333
   H       -9.95473        -9.98346         6.59179
   H      -10.49375       -11.45543         5.79367
   H      -10.34969        -9.96687         4.86709
   H       -8.87667        -8.49049         3.99742
   H       -8.03063        -9.65849         2.97871
   H       -6.77279        -7.18475         4.26309
   H       -7.22347        -7.34836         2.56398
   H       -5.92419        -8.33866         3.23406
   H       -9.19153        -7.83220         6.42344
   H       -6.26626        -6.89514         9.40618
   H       -4.66501        -8.42564         8.35935
   H       -9.81508        -6.47565         8.18567
   H       -7.54907        -5.25862         9.83469
   H       -9.11962        -3.80166        10.76703
   H      -11.34503        -2.94507        11.39722
   H      -13.85160        -3.45265        11.17029
   H      -15.95788        -4.35733        10.65257
   H      -17.93992        -5.75138         9.78762
   H      -18.41863        -7.87303         8.25520
   H      -16.97226        -8.72029         7.49924
*
