# ORCA input file
# SCF done       -188.202808938846          0.000713702617
! CAM-B3LYP def2-SVP def2/J RIJCOSX Grid4 TightSCF
%maxcore 5000
%tddft
    Mode sTDDFT
    Ethresh 5.0
    maxcore 5000
end

%pal
  nprocs 6
  end
* xyz 0 1
   C        1.18433         1.64079         1.80481
   C        0.03148         0.91389         1.83539
   C       -0.13617        -0.53599         1.56889
   O        0.74082        -1.36413         1.59848
   O       -1.41929        -0.82435         1.33395
   C       -1.72067        -2.19452         1.11396
   C       -1.14756         1.58159         2.23317
   N       -2.09274         2.14190         2.56243
   C        2.48696         1.28443         1.38072
   C        2.97759         0.17791         0.70629
   C        4.34326         0.27194         0.46271
   C        4.91669         1.45721         0.96919
   S        3.76497         2.46389         1.71014
   C        6.30797         1.42841         0.71218
   C        6.61832         0.23660         0.03462
   C        5.38973        -0.52358        -0.15696
   C        5.25189        -1.71709        -0.80036
   C        6.35729        -2.39806        -1.35499
   N        7.25384        -2.95439        -1.80300
   C        4.00120        -2.34660        -0.98543
   N        2.99716        -2.86699        -1.17165
   C        7.97583         0.11222        -0.25587
   C        8.70403         1.19773         0.20422
   S        7.68998         2.39201         0.99625
   C       10.10540         1.39960         0.11081
   C       11.03390         0.60089        -0.53492
   C       12.33097         1.09356        -0.39604
   C       12.39134         2.27701         0.36307
   S       10.85121         2.78542         0.89516
   C       13.74217         2.68279         0.46551
   C       14.54194         1.75830        -0.22978
   C       13.67879         0.73894        -0.80986
   C       14.05893        -0.30869        -1.59558
   C       15.40787        -0.50979        -1.95841
   N       16.50582        -0.64978        -2.25678
   C       13.13014        -1.23677        -2.11242
   N       12.37531        -1.98949        -2.53333
   C       15.90068         2.05405        -0.16424
   C       16.15063         3.20097         0.57335
   S       14.66769         3.92407         1.18597
   C       17.40895         3.80313         0.86758
   C       18.61501         3.19756         0.58736
   C       19.85997         3.75243         0.86529
   C       19.98771         5.07286         1.48325
   C       18.93916         5.84218         1.85200
   S       17.30449         5.38012         1.63297
   C       21.38547         5.30427         1.59651
   C       22.09844         4.21192         1.09497
   C       23.49447         4.41399         1.19685
   C       23.78770         5.61725         1.75624
   S       22.40028         6.55690         2.18447
   C       21.15240         3.21930         0.63639
   C       21.41606         1.95172         0.09118
   C       22.66215         1.43101        -0.13021
   C       22.85901         0.14177        -0.64434
   C       24.09414        -0.40989        -0.89099
   C       24.36436        -1.73459        -1.40381
   C       23.45702        -2.74573        -1.60578
   C       23.79160        -4.01942        -2.10838
   N       23.99952        -5.07367        -2.51387
   C       22.07979        -2.67891        -1.31199
   N       20.95451        -2.71171        -1.08258
   C       25.80338        -1.83836        -1.63169
   C       26.41667        -0.63237        -1.21416
   C       25.38124         0.29654        -0.71835
   O       25.57770         1.41046        -0.27024
   C       27.77149        -0.42287        -1.29300
   C       28.56187        -1.45270        -1.81413
   C       27.94064        -2.65270        -2.23243
   C       26.56972        -2.86547        -2.14918
   S       29.10017        -3.79146        -2.84864
   C       30.38570        -2.65460        -2.53921
   C       29.97097        -1.48280        -2.00256
  Br       32.15439        -3.12171        -2.95485
   H        1.09707         2.66843         2.14513
   H       -1.50941        -2.77642         2.01354
   H       -1.11917        -2.58821         0.29183
   H       -2.77912        -2.23475         0.87222
   H        2.36264        -0.65684         0.42793
   H        8.42167        -0.72254        -0.76385
   H       10.77051        -0.28989        -1.07436
   H       16.66803         1.47064        -0.63747
   H       18.57974         2.22010         0.12973
   H       19.05898         6.80861         2.31522
   H       24.26039         3.72980         0.88203
   H       24.75930         6.02705         1.95151
   H       20.55945         1.33792        -0.16074
   H       23.53694         2.01399         0.09689
   H       21.97464        -0.44334        -0.86190
   H       28.20861         0.50708        -0.96436
   H       26.14588        -3.79758        -2.48316
   H       30.62944        -0.67187        -1.74975
*
