# ORCA input file
# SCF done       -219.114788762053          0.000604546522
! CAM-B3LYP def2-SVP def2/J RIJCOSX Grid4 TightSCF
%maxcore 5000
%tddft
    Mode sTDDFT
    Ethresh 5.0
    maxcore 5000
end

%pal
  nprocs 6
  end
* xyz 0 1
   C        0.27111         0.77488         3.82556
   C        0.81674         1.70426         4.67432
   C        2.11513         1.61029         5.22038
   N        3.15753         1.60442         5.70123
   C        0.19382         2.87542         5.15467
   N       -0.22999         3.84394         5.60503
   C        0.93406        -0.45054         3.39810
   C        0.03883        -1.19103         2.58845
   C        0.36361        -2.40671         2.03625
   C        1.63816        -2.91871         2.29359
   C        2.53075        -2.17071         3.09939
   C        2.20031        -0.94194         3.65821
   S        4.04905        -2.99126         3.28184
   C        3.48728        -4.30048         2.30104
   C        2.22309        -4.13886         1.85285
   C       -1.22954        -0.45852         2.45354
   O       -2.19300        -0.82944         1.81605
   C       -1.05650         0.79816         3.22485
   C       -1.92179         1.85110         3.33882
   C       -3.23343         2.04344         2.85942
   C       -4.12647         1.22425         2.18028
   C       -5.33190         1.86177         1.92303
   C       -5.37518         3.18963         2.40860
   S       -3.93428         3.63961         3.18604
   C       -6.63220         3.74804         2.07731
   C       -7.38332         2.78373         1.38205
   C       -6.59686         1.56281         1.27385
   C       -6.98819         0.39167         0.69679
   C       -6.18062        -0.76645         0.65500
   N       -5.56347        -1.73070         0.60821
   C       -8.26075         0.24894         0.10211
   N       -9.29532         0.13493        -0.37896
   C       -8.63940         3.24692         0.99975
   C       -8.85339         4.55444         1.40218
   S       -7.47949         5.22210         2.26763
   C      -10.01397         5.33487         1.17446
   C      -10.28228         6.61716         1.61873
   C      -11.53201         7.06555         1.19170
   C      -12.21428         6.11517         0.41042
   S      -11.32696         4.67137         0.20998
   C      -13.45881         6.66136         0.01884
   C      -13.57365         7.95554         0.55564
   C      -12.36453         8.25173         1.31171
   C      -12.07509         9.40030         1.98730
   C      -10.86070         9.57103         2.68548
   N       -9.87367         9.71041         3.25155
   C      -12.97219        10.48845         2.03108
   N      -13.70297        11.37113         2.06319
   C      -14.77221         8.57924         0.21614
   C      -15.57070         7.77708        -0.58241
   S      -14.81963         6.21662        -0.90818
   C      -16.84738         8.08198        -1.13410
   C      -17.50009         7.22838        -1.99640
   C      -18.73363         7.48075        -2.58280
   C      -19.46910         8.71366        -2.30276
   C      -19.02232         9.68952        -1.47952
   S      -17.52583         9.62615        -0.64706
   C      -20.66069         8.62315        -3.07229
   C      -20.68006         7.42602        -3.79501
   C      -21.84212         7.32186        -4.59083
   C      -22.64741         8.40793        -4.45195
   S      -22.04197         9.59996        -3.35740
   C      -19.47445         6.68959        -3.49636
   C      -19.03871         5.45463        -4.00000
   C      -19.69559         4.64882        -4.89202
   C      -19.11694         3.45893        -5.35110
   C      -19.57752         2.57355        -6.29413
   C      -18.98065         1.21705        -6.33480
   O      -17.98502         0.84452        -5.75271
   C      -19.87909         0.41472        -7.18998
   C      -19.82600        -0.91748        -7.47846
   C      -20.82175        -1.48062        -8.30834
   C      -21.85925        -0.64672        -8.81577
   C      -22.85294        -1.21386        -9.63835
   C      -22.81594        -2.54509        -9.94537
   C      -21.78876        -3.36838        -9.44388
   C      -20.81162        -2.84870        -8.64186
   F      -21.77789        -4.67146        -9.76050
   F      -23.76139        -3.08184       -10.72993
   C      -21.88417         0.73231        -8.50206
   C      -20.90243         1.25865        -7.70662
   C      -20.64778         2.62923        -7.25575
   C      -21.21009         3.74713        -7.82432
   C      -20.78196         5.07233        -7.61366
   N      -20.46974         6.17477        -7.52852
   C      -22.23825         3.70653        -8.78759
   N      -23.09313         3.74635        -9.55367
   H       -0.34731        -2.94246         1.42658
   H        2.91869        -0.41435         4.26255
   H        4.14989        -5.12397         2.11794
   H        1.70834        -4.84909         1.23151
   H       -1.55179         2.70947         3.88700
   H       -3.87786         0.21818         1.89204
   H       -9.37318         2.67767         0.45791
   H       -9.59315         7.17984         2.22271
   H      -15.05945         9.56934         0.52132
   H      -16.99350         6.30158        -2.23161
   H      -19.58160        10.59210        -1.29084
   H      -22.08275         6.51188        -5.25232
   H      -23.58462         8.59199        -4.93960
   H      -18.06167         5.12290        -3.66966
   H      -20.67619         4.92588        -5.23750
   H      -18.20480         3.13599        -4.85693
   H      -19.03462        -1.53405        -7.08012
   H      -23.64479        -0.59692       -10.03371
   H      -20.03167        -3.49204        -8.26561
   H      -22.68641         1.33477        -8.89675
*
