# ORCA input file
# SCF done       -194.375330030486          0.000974615474
! CAM-B3LYP def2-SVP def2/J RIJCOSX Grid4 TightSCF
%maxcore 5000
%tddft
    Mode sTDDFT
    Ethresh 5.0
    maxcore 5000
end

%pal
  nprocs 6
  end
* xyz 0 1
   C       -7.45047        -6.79801        11.50596
   C       -6.38220        -7.22133        12.28150
   C       -5.14773        -7.50208        11.71033
   C       -4.94271        -7.35976        10.34664
   C       -6.00138        -6.93451         9.56012
   C       -7.26264        -6.65760        10.13911
   C       -8.18735        -6.25839         9.08990
   C       -9.43859        -5.73889         9.25443
   C      -10.04201        -5.52101        10.51298
   N      -10.58258        -5.32063        11.50467
   C      -10.27404        -5.29859         8.20309
   N      -10.99695        -4.90737         7.40287
   C       -7.50175        -6.50956         7.81911
   C       -6.07787        -6.67432         8.13274
   C       -5.02645        -6.39182         7.31173
   C       -5.15116        -5.90428         5.99259
   N       -5.18708        -5.45795         4.93567
   C       -3.67487        -6.47099         7.71288
   N       -2.56167        -6.51144         7.98647
   C       -8.11756        -6.71531         6.63418
   C       -7.49496        -7.28394         5.46552
   N       -6.55884        -8.20641         5.61223
   N       -5.94161        -8.75703         4.61458
   C       -6.21275        -8.46895         3.35466
   C       -7.19530        -7.48836         3.05855
   C       -7.87611        -6.88263         4.15986
   N       -8.71566        -5.92886         3.76696
   S       -8.63669        -5.80703         2.17068
   N       -7.54110        -6.94654         1.89334
   C       -5.42826        -9.06666         2.30746
   S       -3.72516        -9.05664         2.47997
   C       -3.46249        -9.59145         0.85410
   C       -4.69051        -9.75136         0.18381
   C       -5.81781        -9.52285         1.04390
   C       -7.12006        -9.83312         0.56768
   C       -8.33606        -9.99748         1.43130
   F       -8.08631       -10.19168         2.73351
   F       -9.20705        -8.96716         1.36547
   F       -9.04863       -11.07285         1.04300
   C       -7.28550       -10.12682        -0.76358
   C       -6.21048       -10.13912        -1.65398
   C       -4.91530        -9.98204        -1.20761
   O       -3.83647       -10.00338        -2.00496
   C       -3.99214       -10.24288        -3.38797
   C       -2.10132        -9.80213         0.50267
   C       -1.60703       -10.60412        -0.46997
   C       -0.21709       -10.74369        -0.75809
   N        0.08725       -11.52405        -1.79477
   N        1.28934       -11.76532        -2.17972
   C        2.36832       -11.24729        -1.60357
   C        2.18589       -10.32795        -0.53169
   C        0.84849       -10.09040        -0.07224
   N        0.81860        -9.21340         0.92784
   S        2.31489        -8.72424         1.24553
   N        3.08124        -9.59963         0.13217
   C        3.62371       -11.60894        -2.19639
   C        4.86349       -11.61584        -1.64539
   C        6.10360       -11.64578        -2.42860
   C        6.25846       -12.07874        -3.71397
   C        5.24331       -12.63407        -4.52576
   N        4.48801       -13.10503        -5.24949
   C        7.49212       -12.07365        -4.40298
   N        8.46067       -12.09700        -5.01731
   C        7.15355       -11.13218        -1.56081
   C        6.63552       -10.98470        -0.25343
   C        7.43024       -10.49270         0.76914
   C        8.74262       -10.15035         0.48098
   C        9.25508       -10.30059        -0.80040
   C        8.46986       -10.79147        -1.83249
   C        5.25461       -11.43705        -0.24962
   C        4.54311       -11.82771         0.84852
   C        4.99093       -11.66199         2.17640
   N        5.28374       -11.52244         3.27709
   C        3.29434       -12.48299         0.80406
   N        2.28919       -13.03521         0.84341
   H       -8.40479        -6.59336        11.96316
   H       -6.51678        -7.33912        13.34579
   H       -4.33533        -7.83918        12.33563
   H       -3.98422        -7.59109         9.91117
   H       -9.17014        -6.49440         6.52501
   H       -8.27093       -10.35705        -1.13849
   H       -6.41540       -10.31238        -2.69664
   H       -2.98163       -10.24796        -3.79287
   H       -4.57519        -9.45176        -3.86727
   H       -4.46171       -11.21240        -3.57515
   H       -1.39017        -9.30489         1.15209
   H       -2.24645       -11.19635        -1.10229
   H        3.52668       -11.86351        -3.24372
   H        7.04013       -10.36343         1.76552
   H        9.37231        -9.75935         1.26543
   H       10.27981       -10.02778        -1.00098
   H        8.88219       -10.89436        -2.82270
*
