# ORCA input file
# SCF done       -180.016412520161          0.000657573213
! CAM-B3LYP def2-SVP def2/J RIJCOSX Grid4 TightSCF
%maxcore 5000
%tddft
    Mode sTDDFT
    Ethresh 5.0
    maxcore 5000
end

%pal
  nprocs 6
  end
* xyz 0 1
   C       -7.86294        -1.25219         2.41870
   C       -7.05917        -1.29036         3.53089
   C       -7.16333        -2.26461         4.54600
   N       -7.19016        -3.02492         5.40608
   C       -6.00794        -0.40266         3.84013
   N       -5.13305         0.26158         4.17797
   C       -8.91956        -2.21691         2.12806
   C       -9.47943        -1.90101         0.86721
   C      -10.50315        -2.62315         0.30353
   C      -11.00498        -3.71156         1.02415
   C      -10.44310        -4.01921         2.28568
   C       -9.40442        -3.28931         2.85229
   S      -11.21458        -5.39734         3.00939
   C      -12.26683        -5.53959         1.62619
   C      -12.05309        -4.60456         0.67024
  Br      -13.54916        -6.90740         1.57566
   C       -8.80437        -0.71548         0.31697
   O       -9.05605        -0.21429        -0.77117
   C       -7.81798        -0.29828         1.32386
   C       -7.00301         0.81335         1.31095
   C       -6.84586         1.83322         0.36508
   N       -7.48393         1.92050        -0.85171
   C       -7.08597         3.05530        -1.45835
   C       -7.24879         3.82834        -2.60197
   C       -6.43116         4.95473        -2.43030
   N       -5.77691         4.87180        -1.21789
   C       -6.15363         3.72178        -0.59977
   C       -5.99748         2.95674         0.53721
   C       -6.25364         6.07981        -3.27091
   C       -6.81006         6.23842        -4.49699
   C       -6.63370         7.42732        -5.26466
   N       -5.95797         8.45366        -4.76686
   N       -5.80306         9.58275        -5.39346
   C       -6.28897         9.83033        -6.60021
   C       -7.01114         8.79972        -7.27526
   C       -7.19439         7.55785        -6.57440
   N       -7.88583         6.76195        -7.36160
   O       -8.11747         7.45564        -8.47482
   N       -7.60178         8.68433        -8.44548
   C       -6.08640        11.12335        -7.15222
   C       -6.47989        11.59816        -8.39065
   C       -6.12465        12.93474        -8.55643
   C       -5.46276        13.46665        -7.42929
   S       -5.26667        12.32643        -6.17717
   C       -5.16789        14.82905        -7.68697
   C       -5.63455        15.15826        -8.97026
   C       -6.24670        13.97674        -9.56167
   C       -6.81383        13.87933       -10.79784
   C       -7.38646        12.68269       -11.27992
   N       -7.85499        11.71956       -11.68778
   C       -6.86464        14.97577       -11.68465
   N       -6.90506        15.86871       -12.40289
   C       -5.40533        16.49177        -9.30709
   C       -4.77256        17.17994        -8.28762
   S       -4.44759        16.16065        -6.89427
   C       -4.40534        18.55008        -8.26956
   C       -3.81370        19.25263        -7.23658
   C       -3.61401        20.59370        -7.56689
   C       -4.05436        20.90934        -8.85948
   S       -4.71557        19.56297        -9.67245
   C       -3.81075        22.29309        -9.09386
   C       -3.22051        22.84298        -7.94966
   C       -3.07578        21.80073        -6.95026
   C       -2.55409        21.91752        -5.69538
   C       -2.47487        20.82019        -4.81229
   N       -2.41278        19.92868        -4.09381
   C       -2.06204        23.14182        -5.19598
   N       -1.66151        24.13447        -4.78506
   C       -2.94717        24.21658        -8.09400
   C       -3.32787        24.67055        -9.32032
   S       -4.02635        23.44885       -10.33062
   H      -10.90568        -2.35514        -0.66076
   H       -9.01524        -3.56594         3.81738
   H      -12.61091        -4.54494        -0.24640
   H       -6.37850         0.95621         2.18231
   H       -8.15791         1.21507        -1.15730
   H       -7.87505         3.63037        -3.44704
   H       -5.13031         5.56019        -0.87253
   H       -5.38142         3.13755         1.39498
   H       -5.63266         6.88511        -2.90046
   H       -7.42042         5.47081        -4.94765
   H       -6.99658        10.98446        -9.10677
   H       -5.68265        16.95435       -10.23725
   H       -3.55143        18.79771        -6.29826
   H       -2.49696        24.83683        -7.34080
   H       -3.24248        25.66627        -9.70700
*
