# ORCA input file
# SCF done       -208.978427693597          0.000830876813
! CAM-B3LYP def2-SVP def2/J RIJCOSX Grid4 TightSCF
%maxcore 5000
%tddft
    Mode sTDDFT
    Ethresh 5.0
    maxcore 5000
end

%pal
  nprocs 6
  end
* xyz 0 1
   C        1.66539        -6.15748        -7.00056
   C        1.60001        -5.59805        -8.27573
   C        0.28457        -5.31519        -8.90745
   O        0.14055        -4.96507       -10.04944
   O       -0.74156        -5.48685        -8.06756
   C        2.77018        -5.29974        -8.99338
   C        2.74086        -4.73069       -10.29151
   N        2.85704        -4.26080       -11.33011
   C        4.02473        -5.54257        -8.42529
   C        4.07538        -6.07764        -7.15710
   C        2.90710        -6.40131        -6.44170
   C        3.29339        -6.99974        -5.16271
   C        2.50473        -7.84135        -4.42675
   C        1.14569        -8.08928        -4.71282
   N        0.03144        -8.30388        -4.88462
   C        2.96854        -8.63134        -3.35453
   N        3.27808        -9.31828        -2.48910
   C        4.71473        -6.78483        -5.00498
   C        5.25804        -6.41055        -6.33047
   O        6.42123        -6.40543        -6.67379
   C        5.55387        -6.85567        -3.93379
   C        5.26044        -6.90556        -2.55666
   C        4.12548        -6.50634        -1.86255
   C        4.23498        -6.69772        -0.48908
   C        5.46724        -7.25036        -0.12079
   S        6.49337        -7.49638        -1.47556
   C        5.72247        -7.47551         1.24769
   C        4.70807        -7.27494         2.17249
   C        3.32675        -6.94549         1.68885
   O        3.28820        -6.33318         0.40238
   C        5.12534        -7.48400         3.48478
   C        6.45617        -7.85229         3.58184
   S        7.20444        -7.93165         2.00081
   C        7.20975        -8.16889         4.74767
   C        8.52318        -8.56955         4.67635
   C        9.32075        -8.92063         5.76220
   C        8.83213        -8.73226         7.13491
   C        7.57080        -8.35815         7.44227
   S        6.35238        -8.03614         6.27634
   C        9.94349        -9.02028         7.97472
   C       11.04255        -9.37652         7.19276
   C       12.17628        -9.68244         7.97636
   C       11.91544        -9.54932         9.30353
   S       10.29378        -9.05762         9.65688
   C       10.66231        -9.35463         5.80342
   C       11.51706        -9.71994         4.73770
   C       11.09894       -10.08809         3.49488
   C       11.92023       -10.33938         2.37453
   C       13.29932       -10.31196         2.22392
   C       13.70891       -10.55411         0.91395
   C       12.63443       -10.75262         0.03414
   S       11.11917       -10.67992         0.85957
   C       12.88379       -10.79594        -1.34112
   C       14.20597       -10.82556        -1.79635
   C       15.30670       -10.99729        -0.79179
   O       14.99177       -10.51323         0.51339
   C       14.29591       -10.73088        -3.17106
   C       13.05970       -10.58995        -3.80468
   S       11.75490       -10.65799        -2.62991
   C       12.83027       -10.45429        -5.17870
   C       11.67611       -10.04317        -5.80281
   C       11.40065       -10.41344        -7.20432
   O       12.16357       -10.90117        -8.00744
   C        9.95628       -10.11362        -7.40205
   C        9.43538        -9.52505        -6.23388
   C        8.08604        -9.23901        -6.14304
   C        7.26014        -9.48988        -7.23944
   C        7.80066       -10.03022        -8.41928
   C        9.16012       -10.36235        -8.49543
   C        7.01247       -10.29037        -9.56441
   N        6.41215       -10.49821       -10.52006
   C        5.80389        -9.20081        -7.05498
   O        5.28068        -9.27840        -5.97450
   O        5.08659        -8.82846        -8.12138
   C       10.54053        -9.31580        -5.29819
   C       10.56686        -8.34687        -4.32399
   C       11.75812        -7.92520        -3.69714
   N       12.71442        -7.52010        -3.20731
   C        9.44971        -7.60663        -3.90853
   N        8.57854        -6.98208        -3.49506
   H        0.74888        -6.37767        -6.47783
   H       -1.57909        -5.30871        -8.52346
   H        4.92966        -5.30989        -8.96627
   H        6.61280        -6.81310        -4.17471
   H        3.26734        -6.05664        -2.32666
   H        2.83091        -6.24125         2.36282
   H        2.72683        -7.87107         1.65196
   H        4.48521        -7.38188         4.34281
   H        8.95985        -8.57634         3.68805
   H        7.23041        -8.24554         8.45946
   H       13.13264        -9.98197         7.58793
   H       12.58636        -9.71270        10.12415
   H       12.57624        -9.72457         4.95806
   H       10.04186       -10.20756         3.31021
   H       13.98563       -10.11313         3.02469
   H       16.20487       -10.45359        -1.09648
   H       15.56120       -12.06790        -0.70649
   H       15.22050       -10.72235        -3.71971
   H       13.62997       -10.77986        -5.83562
   H        7.63945        -8.83883        -5.24713
   H        9.56934       -10.80294        -9.39197
   H        5.57686        -8.82340        -8.95728
*
