# ORCA input file
# SCF done       -188.732278014114          0.000441099396
! CAM-B3LYP def2-SVP def2/J RIJCOSX Grid4 TightSCF
%maxcore 5000
%tddft
    Mode sTDDFT
    Ethresh 5.0
    maxcore 5000
end

%pal
  nprocs 6
  end
* xyz 0 1
   C       -2.94328        -2.63918         6.30491
   C       -1.89899        -3.49905         6.13972
   C       -2.15109        -4.28500         4.95971
   C       -3.42276        -3.85482         4.41643
   O       -4.05007        -4.19583         3.43151
   N       -3.84729        -2.86814         5.31146
   C       -1.05661        -5.09228         4.76388
   O       -0.14634        -4.87691         5.75987
   C       -0.60544        -3.89961         6.64709
   O        0.04875        -3.55395         7.59018
   C       -0.74640        -6.02066         3.72069
   C        0.50145        -6.67097         3.69393
   C        0.78798        -7.51753         2.65271
   C       -0.17676        -7.75132         1.65279
   C       -1.41175        -7.11435         1.67578
   C       -1.69101        -6.24553         2.70492
   C        0.33489        -8.73994         0.74086
   C        1.61557        -9.13407         1.16611
   C        2.04107        -8.31550         2.36863
   C        2.46315        -9.19119         3.55619
   C        1.38736       -10.19959         3.94413
   C        3.18742        -7.38933         1.89435
   C        3.67269        -6.36554         2.91148
   C        2.30099       -10.11461         0.48820
   C        1.72245       -10.71812        -0.64260
   C        0.43670       -10.31001        -1.03990
   C       -0.25580        -9.33107        -0.36739
   C        2.42612       -11.74592        -1.37057
   C        2.09000       -12.09300        -2.63835
   C        2.59879       -13.12076        -3.45765
   C        2.06620       -13.31843        -4.70865
   C        2.34290       -14.30278        -5.69094
   C        1.58246       -14.21083        -6.82149
   C        0.66673       -13.13649        -6.81073
   S        0.79350       -12.25932        -5.30249
   C       -0.24399       -12.65968        -7.73230
   C       -0.65114       -13.09514        -9.01340
   C       -1.57916       -12.29023        -9.60290
   C       -1.96757       -11.15503        -8.83241
   S       -1.08210       -11.18388        -7.31119
   C       -2.91977       -10.21721        -9.10912
   C       -3.24365        -9.13152        -8.21937
   C       -2.25851        -8.58517        -7.38059
   C       -2.61799        -7.75171        -6.35636
   C       -3.95542        -7.35462        -6.17928
   C       -4.91922        -7.77922        -7.08940
   C       -4.56097        -8.66026        -8.09124
   C       -4.02914        -6.54582        -4.98122
   C       -2.74091        -6.47518        -4.41238
   C       -1.73848        -7.22472        -5.25271
   C       -0.63078        -6.29790        -5.78255
   C       -1.17951        -5.12113        -6.58024
   C       -1.10759        -8.39224        -4.46620
   C       -2.14547        -9.37581        -3.94027
   C       -2.51663        -5.80420        -3.24057
   C       -3.58309        -5.15589        -2.59253
   C       -4.85736        -5.21220        -3.18194
   C       -5.09011        -5.90102        -4.35559
   C       -3.39318        -4.42676        -1.36666
   C       -2.25258        -4.42667        -0.63565
   C       -1.98751        -3.67642         0.53516
   C       -0.80133        -3.67868         1.24751
   C       -0.92169        -2.76438         2.34857
   C       -2.26476        -2.18552         2.28628
   O       -2.82774        -1.38698         2.99760
   N       -2.82566        -2.77533         1.15612
   C        0.24448        -2.82325         3.03349
   O        1.10039        -3.69532         2.45907
   C        0.50016        -4.27298         1.32358
   O        1.07852        -5.08552         0.64768
   H       -3.11029        -1.88789         7.05282
   H       -4.66929        -2.30998         5.14122
   H        1.19835        -6.48691         4.49605
   H       -2.14036        -7.29766         0.90071
   H       -2.64204        -5.73897         2.74820
   H        2.67564        -8.55259         4.41391
   H        3.38202        -9.72043         3.29480
   H        0.46721        -9.68893         4.22021
   H        1.71836       -10.79437         4.79259
   H        1.16987       -10.87092         3.11603
   H        2.83195        -6.85198         1.01281
   H        4.02305        -8.02540         1.59186
   H        2.89484        -5.63829         3.12341
   H        4.52359        -5.82972         2.49618
   H        3.99027        -6.83404         3.83971
   H        3.28615       -10.42586         0.80608
   H       -0.03938       -10.79814        -1.87495
   H       -1.24452        -9.03952        -0.68863
   H        3.25455       -12.23186        -0.87186
   H        1.30870       -11.51263        -3.11244
   H        3.38011       -13.77673        -3.10143
   H        3.09607       -15.05482        -5.53062
   H        1.66186       -14.87876        -7.66162
   H       -0.25804       -13.99293        -9.45814
   H       -2.00368       -12.47030       -10.57541
   H       -3.52628       -10.35335        -9.99446
   H       -1.21811        -8.81084        -7.54756
   H       -5.94497        -7.45356        -6.99627
   H       -5.31702        -9.03906        -8.76425
   H        0.03883        -6.88449        -6.41448
   H       -0.04995        -5.92562        -4.93638
   H       -1.75048        -5.47152        -7.43747
   H       -0.36291        -4.50007        -6.94094
   H       -1.83096        -4.50702        -5.96212
   H       -0.53354        -7.98585        -3.63089
   H       -0.41637        -8.92400        -5.12253
   H       -2.84277        -8.88195        -3.26660
   H       -1.65477       -10.18175        -3.40170
   H       -2.70893        -9.81349        -4.76077
   H       -1.52154        -5.76344        -2.82718
   H       -5.67895        -4.70951        -2.69115
   H       -6.08280        -5.93615        -4.77928
   H       -4.24263        -3.84546        -1.02971
   H       -1.41172        -5.03671        -0.93241
   H       -3.79449        -2.63951         0.91408
   H        0.59532        -2.31662         3.91355
*
