# ORCA input file
# SCF done       -164.828068158210          0.000683830087
! CAM-B3LYP def2-SVP def2/J RIJCOSX Grid4 TightSCF
%maxcore 5000
%tddft
    Mode sTDDFT
    Ethresh 5.0
    maxcore 5000
end

%pal
  nprocs 6
  end
* xyz 0 1
   C       -4.17908         2.57331         2.82477
   C       -3.11172         2.52620         3.68083
   C       -1.83585         2.14403         3.24661
   C       -1.62672         1.80185         1.92816
   C       -2.72449         1.84814         1.01240
   C       -4.00826         2.23496         1.46713
   C       -5.04448         2.25238         0.50949
   C       -4.77063         1.90574        -0.78703
   C       -3.45765         1.54097        -1.12674
   N       -2.47568         1.51114        -0.26693
   N       -0.44913         1.39903         1.34425
   C        0.78851         1.18221         1.81769
   S        1.25497         1.42193         3.46736
   C        2.86973         0.89467         3.08472
   N        3.78983         0.88607         4.12887
   O        4.92921         0.52530         3.89053
   O        3.37628         1.24657         5.22310
   C        3.03090         0.55354         1.76948
   C        1.85409         0.71208         1.01407
   C        1.70505         0.45518        -0.38309
   C        2.64066        -0.11092        -1.18443
   C        2.46636        -0.34747        -2.57601
   C        3.49283        -0.99827        -3.30760
   C        3.38891        -1.27121        -4.71453
   N        4.37324        -1.90641        -5.34958
   C        5.44770        -2.27385        -4.67753
   C        5.56235        -1.98615        -3.28499
   N        4.60042        -1.36959        -2.64067
   C        6.73147        -2.37110        -2.58087
   N        7.69186        -2.69823        -2.04928
   C        6.48124        -2.95518        -5.36046
   N        7.33450        -3.50455        -5.89421
   C        2.24633        -0.86963        -5.48743
   C        1.22111        -0.22331        -4.74614
   C        1.32149         0.02164        -3.32545
   N        0.22679         0.62200        -2.85856
   S       -0.81829         0.85763        -4.06345
   N        0.07082         0.20559        -5.24252
   C        2.24263        -1.14378        -6.85187
   C        1.35913        -0.81913        -7.87116
   C        1.59690        -1.19083        -9.21100
   C        0.66708        -0.73041       -10.10337
   C       -0.34454         0.02758        -9.49705
   S       -0.10982         0.11642        -7.76726
   C       -1.40580         0.67849       -10.12746
   C       -1.69733         0.70853       -11.50210
   C       -2.77665         1.48416       -11.82831
   C       -3.39664         2.10343       -10.72641
   S       -2.56085         1.63171        -9.24611
   C       -4.47791         2.95682       -10.63771
   C       -5.21036         3.58184       -11.65863
   C       -5.00997         3.63033       -13.04976
   C       -6.00399         4.44573       -13.62258
   C       -6.23357         4.82811       -14.93296
   C       -7.31312         5.67930       -15.18314
   C       -7.79194         6.24238       -16.36237
   C       -8.92768         7.05104       -16.06355
   C       -9.15569         6.98730       -14.69675
   C       -8.17153         6.14371       -14.10266
   C       -7.95312         5.76861       -12.80411
   C       -6.85926         4.91482       -12.54329
   C       -6.36586         4.39092       -11.36765
   C       -9.71800         7.81649       -16.99743
   C       -9.50195         7.89882       -18.30762
   H       -5.15772         2.86728         3.17287
   H       -3.24297         2.78664         4.71997
   H       -1.02926         2.12312         3.96002
   H       -6.04068         2.53951         0.81485
   H       -5.53994         1.90810        -1.54323
   H       -3.20300         1.26294        -2.14167
   H       -0.60737         1.21713         0.34810
   H        3.97143         0.21261         1.37793
   H        0.76844         0.73415        -0.84347
   H        3.59221        -0.43290        -0.78799
   H        3.11742        -1.69436        -7.18028
   H        2.45402        -1.78132        -9.48287
   H        0.70364        -0.91748       -11.16144
   H       -1.11103         0.16494       -12.22082
   H       -3.14332         1.59278       -12.83105
   H       -4.79541         3.20019        -9.63063
   H       -4.21631         3.16844       -13.60333
   H       -5.59950         4.48574       -15.73852
   H       -7.37264         6.09303       -17.34012
   H       -9.94158         7.49042       -14.16347
   H       -8.58405         6.11215       -11.99647
   H       -6.76495         4.54509       -10.38117
   H      -10.54601         8.35790       -16.55676
   H       -8.69115         7.38092       -18.79050
   H      -10.13276         8.49314       -18.94549
*
