# ORCA input file
# SCF done       -219.612473516756          0.000258203692
! CAM-B3LYP def2-SVP def2/J RIJCOSX Grid4 TightSCF
%maxcore 5000
%tddft
    Mode sTDDFT
    Ethresh 5.0
    maxcore 5000
end

%pal
  nprocs 6
  end
* xyz 0 1
   C       -4.63456        -2.10155         4.02835
   C       -3.72174        -2.45770         3.07142
   C       -3.12754        -3.73477         2.98525
   N       -2.61673        -4.75523         2.86088
   C       -3.22694        -1.61658         2.05077
   N       -2.76574        -1.00750         1.19358
   C       -5.09495        -2.95285         5.11682
   C       -5.93694        -2.19203         5.96289
   C       -6.53425        -2.71745         7.08314
   C       -6.28752        -4.06024         7.38479
   C       -5.44670        -4.81512         6.53179
   C       -4.84396        -4.28373         5.39906
   S       -5.28297        -6.45464         7.08406
   C       -6.32915        -6.10774         8.43539
   C       -6.77986        -4.83135         8.47306
  Br       -6.73069        -7.46460         9.66622
   C       -6.05467        -0.81456         5.44350
   O       -6.72293         0.07070         5.92996
   C       -5.26045        -0.79542         4.18581
   C       -5.27355         0.17614         3.23496
   C       -5.78578         1.51593         3.31391
   C       -6.26043         2.10387         2.12597
   C       -6.72708         3.39171         2.14724
   C       -6.69493         4.13982         3.34038
   C       -6.20138         3.57933         4.51167
   C       -5.75574         2.27438         4.49308
   C       -7.18035         5.46935         3.06012
   C       -7.52040         5.54617         1.69618
   C       -7.31614         4.20970         1.02214
   C       -6.37961         4.30412        -0.19440
   C       -5.01341         4.88288         0.14707
   C       -8.66824         3.61388         0.57498
   C       -9.67234         3.47772         1.71326
   C       -7.97593         6.72278         1.16021
   C       -8.09695         7.86632         1.97390
   C       -7.76432         7.76410         3.33719
   C       -7.31602         6.58207         3.88193
   C       -8.56877         9.08314         1.38357
   C       -8.71654        10.27972         2.01648
   C       -9.21908        11.43452         1.39872
   C       -9.42553        12.61864         2.06714
   C       -9.97781        13.81588         1.55706
   C      -10.11782        14.80658         2.48567
   C       -9.67270        14.44220         3.77303
   S       -9.05747        12.81393         3.77436
   C       -9.69980        15.19476         4.94174
   C      -10.22224        16.47998         5.16045
   C      -10.11225        16.89979         6.45937
   C       -9.48509        15.97282         7.31525
   S       -9.04520        14.54038         6.42564
   C       -9.22593        16.14785         8.66910
   C       -8.53873        15.26918         9.48771
   S       -7.88751        13.77082         8.90459
   C       -7.11768        13.38893        10.42336
   C       -7.41240        14.38973        11.38474
   C       -8.21060        15.44385        10.86579
   C       -8.58310        16.51033        11.68875
   C       -8.16957        16.51645        12.99758
   F       -8.52687        17.53192        13.80148
   C       -7.37972        15.47485        13.51169
   F       -6.99678        15.51521        14.79753
   C       -6.99851        14.41992        12.72252
   C       -6.28842        12.27987        10.52940
   C       -6.04459        11.43153         9.46788
   C       -5.12583        10.39209         9.49497
   C       -4.73083         9.58749         8.44026
   C       -4.95224         9.67154         7.02676
   C       -5.33499        10.76967         6.27930
   C       -5.70219        10.71027         4.92517
   N       -6.09343        10.72661         3.84281
   C       -5.35535        12.10702         6.71677
   N       -5.32900        13.23217         6.95202
   C       -4.53537         8.39526         6.43838
   C       -3.97724         7.58438         7.45679
   C       -4.03999         8.31871         8.74010
   O       -3.63176         7.94252         9.81972
   C       -3.45441         6.33994         7.21212
   C       -3.46799         5.87308         5.89196
   C       -3.99924         6.69973         4.87723
   C       -4.53897         7.95669         5.12813
   S       -3.87410         5.95113         3.31305
   C       -3.13826         4.54762         4.03892
   C       -2.98396         4.63753         5.38061
  Br       -2.63825         3.09274         2.96104
   H       -7.17121        -2.10998         7.70688
   H       -4.21717        -4.90175         4.77844
   H       -7.43344        -4.44782         9.23512
   H       -4.87521        -0.08303         2.26065
   H       -6.26441         1.52401         1.21445
   H       -6.15754         4.15785         5.42279
   H       -5.34008         1.84362         5.38826
   H       -6.85812         4.92689        -0.95319
   H       -6.25309         3.30542        -0.61677
   H       -5.11011         5.88178         0.56683
   H       -4.39866         4.94252        -0.74755
   H       -4.50168         4.25157         0.86857
   H       -8.48467         2.63130         0.13544
   H       -9.08855         4.25510        -0.20270
   H       -9.28736         2.82504         2.49367
   H      -10.60155         3.05366         1.33977
   H       -9.89074         4.44780         2.15453
   H       -8.23876         6.78917         0.11397
   H       -7.85671         8.63107         3.97079
   H       -7.06982         6.52176         4.93204
   H       -8.83832         9.02457         0.33518
   H       -8.43518        10.38133         3.05455
   H       -9.48115        11.39781         0.34898
   H      -10.26305        13.90708         0.52376
   H      -10.52450        15.77993         2.27813
   H      -10.66925        17.06140         4.37432
   H      -10.45942        17.85260         6.81817
   H       -9.57240        17.07352         9.10724
   H       -9.18958        17.32297        11.32410
   H       -6.39432        13.63312        13.14284
   H       -5.76936        12.11754        11.46418
   H       -6.60279        11.60787         8.55986
   H       -4.68892        10.12312        10.45136
   H       -3.03360         5.74885         8.01038
   H       -4.93447         8.54353         4.31604
   H       -2.54508         3.86665         5.98732
*
