# ORCA input file
# SCF done       -203.776404500375          0.000752423393
! CAM-B3LYP def2-SVP def2/J RIJCOSX Grid4 TightSCF
%maxcore 5000
%tddft
    Mode sTDDFT
    Ethresh 5.0
    maxcore 5000
end

%pal
  nprocs 6
  end
* xyz 0 1
   C       -4.68692        -0.48300        -1.04964
   C       -4.99326        -1.74561        -0.60852
   C       -4.14608        -2.86256        -0.74978
   N       -3.49699        -3.80553        -0.83633
   C       -6.19815        -2.08418         0.03896
   N       -7.16639        -2.40323         0.56715
   C       -3.45447        -0.09172        -1.72983
   C       -3.51482         1.29325        -2.03251
   C       -2.50059         1.95839        -2.67746
   C       -1.36806         1.22230        -3.04098
   C       -1.31337        -0.15757        -2.73238
   C       -2.34125        -0.83042        -2.08105
   S        0.17667        -0.87251        -3.26647
   C        0.69906         0.67050        -3.88877
   C       -0.19548         1.67108        -3.70771
  Br        2.37419         0.81420        -4.71998
   C       -4.79191         1.82909        -1.54627
   O       -5.19444         2.98501        -1.63201
   C       -5.50321         0.70237        -0.93510
   C       -6.74207         0.85905        -0.35914
   N       -7.32856         2.06005        -0.34349
   C       -8.51333         2.39483         0.22976
   S       -9.45920         1.24868         1.12958
   C      -10.56635         2.51892         1.53822
   N      -11.67470         2.19301         2.32962
   O      -12.44347         3.09050         2.62106
   O      -11.78330         1.02801         2.67006
   C      -10.21904         3.73948         1.02032
   C       -9.04866         3.68701         0.24410
   C       -8.45757         4.83489        -0.40964
   C       -7.82590         4.79516        -1.59451
   C       -7.12167         5.88038        -2.23808
   C       -6.71506         5.71166        -3.57006
   C       -5.97824         6.69105        -4.18748
   C       -5.62119         7.85805        -3.49154
   C       -6.03099         8.04415        -2.17813
   C       -6.77703         7.05905        -1.56519
   C       -4.79996         8.67396        -4.35604
   C       -4.66138         8.02197        -5.59606
   C       -5.46123         6.73772        -5.60984
   C       -4.59960         5.51530        -5.95807
   C       -3.50129         5.26506        -4.93040
   C       -6.69888         6.84539        -6.53199
   C       -6.41113         7.05695        -8.01235
   C       -3.86848         8.56672        -6.57506
   C       -3.20430         9.78627        -6.34801
   C       -3.37416        10.42957        -5.11241
   C       -4.15977         9.88328        -4.12048
   C       -2.39686        10.33473        -7.40355
   C       -1.45847        11.30651        -7.26703
   C       -0.68724        11.88531        -8.30023
   C       -0.85480        11.80723        -9.65916
   C       -0.02541        12.45670       -10.61250
   C       -0.41977        12.30936       -11.90533
   C       -1.59063        11.53325       -12.06159
   S       -2.15442        10.97502       -10.50035
   C       -2.25845        11.23013       -13.22972
   C       -1.91599        11.60955       -14.54764
   C       -2.79542        11.17723       -15.49010
   C       -3.88760        10.43023       -14.97574
   S       -3.73882        10.28959       -13.23342
   C       -4.91570         9.91695       -15.72190
   C       -6.02555         9.17615       -15.27881
   S       -6.22852         8.68497       -13.61434
   C       -7.72686         7.86622       -13.97328
   C       -8.04050         7.98803       -15.31140
   C       -7.09537         8.72175       -16.04477
   C       -7.35807         8.98802       -17.49081
   C       -8.33530        10.16878       -17.63250
   O       -9.23558        10.16709       -18.43045
   C       -8.06898        11.33125       -16.71502
   C       -7.90034         7.74580       -18.22736
   C       -8.54388         6.70778       -17.30217
   C       -9.16670         7.36431       -16.06647
   C       -8.46533         7.19007       -12.94871
   C       -8.09676         7.11290       -11.67067
   H       -2.57609         3.01254        -2.89363
   H       -2.25119        -1.88250        -1.86863
   H       -0.03656         2.68445        -4.02843
   H       -7.28160         0.03598         0.09151
   H       -6.76764         2.81918        -0.77202
   H      -10.80389         4.62655         1.18392
   H       -8.58152         5.77065         0.11645
   H       -7.84324         3.87599        -2.16729
   H       -6.97733         4.80265        -4.09245
   H       -5.76136         8.94042        -1.63965
   H       -7.07789         7.19069        -0.53723
   H       -4.14288         5.66929        -6.93662
   H       -5.24244         4.63445        -6.02113
   H       -2.86287         6.14104        -4.83339
   H       -2.88707         4.42187        -5.24162
   H       -3.93191         5.04311        -3.95605
   H       -7.31147         7.67659        -6.17231
   H       -7.28297         5.92998        -6.40941
   H       -5.91169         8.00698        -8.17982
   H       -7.35085         7.07075        -8.55995
   H       -5.79726         6.25653        -8.41702
   H       -3.71916         8.06460        -7.51951
   H       -2.89076        11.37858        -4.93858
   H       -4.27390        10.38838        -3.17270
   H       -2.54396         9.88395        -8.37530
   H       -1.23263        11.67339        -6.27421
   H        0.13622        12.51305        -7.98096
   H        0.83669        13.02141       -10.30293
   H        0.08903        12.74506       -12.74638
   H       -1.03676        12.19012       -14.76193
   H       -2.70141        11.37171       -16.54431
   H       -4.86228        10.10530       -16.78751
   H       -6.44252         9.32961       -17.98629
   H       -8.40632        11.07190       -15.71241
   H       -8.62276        12.20255       -17.05547
   H       -7.00745        11.55659       -16.66134
   H       -7.09419         7.27256       -18.78886
   H       -8.64293         8.10173       -18.94510
   H       -9.30273         6.15209       -17.85379
   H       -7.78883         5.99453       -16.96199
   H       -9.69392         6.62441       -15.46522
   H       -9.88373         8.12820       -16.37959
   H       -9.38510         6.72222       -13.27479
   H       -7.18799         7.57239       -11.31877
   H       -8.69273         6.58905       -10.94467
*
