# ORCA input file
# SCF done       -197.133390546916          0.000745052147
! CAM-B3LYP def2-SVP def2/J RIJCOSX Grid4 TightSCF
%maxcore 5000
%tddft
    Mode sTDDFT
    Ethresh 5.0
    maxcore 5000
end

%pal
  nprocs 6
  end
* xyz 0 1
   C       -7.22004         2.75363         4.13831
   C       -7.76080         1.82546         4.98856
   C       -7.52448         1.78874         6.37849
   N       -7.36903         1.71202         7.51282
   C       -8.62382         0.78932         4.57644
   N       -9.32957        -0.06520         4.27782
   C       -6.32463         3.84369         4.51449
   C       -5.97951         4.58251         3.35185
   C       -5.15441         5.68154         3.38711
   C       -4.64154         6.07102         4.62836
   C       -4.98696         5.32631         5.78291
   C       -5.82302         4.21610         5.74677
   S       -4.24389         5.97917         7.20888
   C       -3.48980         7.22735         6.25176
   C       -3.77919         7.15960         4.92969
  Br       -2.39475         8.49746         7.08849
   C       -6.64452         3.98120         2.19428
   O       -6.58655         4.34366         1.02340
   C       -7.42300         2.84638         2.70830
   C       -8.20498         2.07959         1.88360
   N       -8.26748         2.35020         0.57158
   C       -8.99688         1.69214        -0.36365
   S       -9.80636         0.20285         0.01905
   C      -10.30493         0.06928        -1.63534
   N      -11.08293        -1.04191        -2.00029
   O      -11.42525        -1.12980        -3.16275
   O      -11.34989        -1.83420        -1.11662
   C       -9.86953         1.09807        -2.42281
   C       -9.12761         2.06288        -1.70927
   C       -8.60638         3.23841        -2.35627
   C       -8.26346         4.40504        -1.77077
   C       -7.71455         5.53129        -2.44879
   C       -7.52055         5.75187        -3.80036
   C       -6.93651         6.99141        -4.04591
   C       -6.66383         7.73068        -2.87889
   S       -7.16020         6.87229        -1.46584
   C       -6.07538         8.96244        -3.11390
   C       -5.89700         9.20122        -4.47149
   S       -6.47215         7.86411        -5.46066
   C       -5.35163        10.34907        -5.09960
   C       -4.75631        11.43827        -4.40390
   C       -4.21356        12.57723        -5.10718
   N       -3.76910        13.63155        -4.40519
   C       -3.69718        13.56764        -3.10008
   C       -4.10377        12.38174        -2.41261
   N       -4.65816        11.39193        -3.07194
   C       -3.95976        12.26891        -1.00829
   N       -3.84096        12.19345         0.12858
   C       -3.19405        14.69694        -2.40636
   N       -2.75139        15.60015        -1.85887
   C       -4.16528        12.65366        -6.51696
   C       -4.77930        11.58931        -7.20212
   C       -5.34545        10.46138        -6.50774
   N       -5.83548         9.55837        -7.35825
   S       -5.60538        10.06884        -8.86045
   N       -4.87988        11.45540        -8.52593
   C       -3.59423        13.74903        -7.22951
   C       -2.61744        14.59992        -6.82640
   C       -1.67914        14.55360        -5.72226
   C       -1.11072        13.43007        -5.18011
   C       -0.12812        13.45422        -4.16979
   N        0.65449        13.40948        -3.33142
   C       -1.44905        12.12078        -5.57047
   N       -1.71592        11.03657        -5.84051
   C       -1.26252        15.92279        -5.45764
   C       -1.70878        16.74893        -6.52189
   C       -2.48063        15.93507        -7.48157
   O       -2.95506        16.27535        -8.53848
   C       -1.45006        18.09766        -6.56161
   C       -0.73464        18.65640        -5.49683
   C       -0.31297        17.82453        -4.42991
   C       -0.56165        16.45841        -4.39456
   S        0.53174        18.72476        -3.21119
   C        0.32036        20.18550        -4.13900
   C       -0.35274        20.01126        -5.30193
  Br        1.00484        21.80348        -3.48779
   H       -4.91378         6.22433         2.48651
   H       -6.05759         3.68501         6.65407
   H       -3.40168         7.84921         4.19695
   H       -8.80398         1.25570         2.24964
   H       -7.65293         3.12922         0.27588
   H      -10.09784         1.16062        -3.47159
   H       -8.52451         3.15019        -3.43064
   H       -8.40406         4.56187        -0.71206
   H       -7.79976         5.05521        -4.56802
   H       -5.78465         9.66371        -2.35560
   H       -4.04010        13.95702        -8.19669
   H       -1.79262        18.70534        -7.38446
   H       -0.23699        15.86518        -3.55569
   H       -0.57229        20.80425        -5.99328
*
