# ORCA input file
# SCF done       -203.233733969560          0.000837251240
! CAM-B3LYP def2-SVP def2/J RIJCOSX Grid4 TightSCF
%maxcore 5000
%tddft
    Mode sTDDFT
    Ethresh 5.0
    maxcore 5000
end

%pal
  nprocs 6
  end
* xyz 0 1
   C       -7.86720        -1.94783        -2.11035
   C       -8.23290        -2.75223        -1.06337
   C       -8.10142        -4.15631        -1.05434
   N       -8.03357        -5.30018        -0.99081
   C       -8.77202        -2.27273         0.14783
   N       -9.20614        -1.92160         1.15099
   C       -7.27565        -2.38894        -3.36844
   C       -6.99736        -1.24808        -4.17011
   C       -6.49571        -1.35318        -5.44562
   C       -6.22478        -2.63350        -5.93949
   C       -6.46274        -3.76091        -5.11694
   C       -6.99710        -3.65677        -3.83720
   S       -6.01945        -5.23458        -5.90550
   C       -5.52077        -4.34013        -7.30832
   C       -5.68556        -2.99805        -7.20014
  Br       -4.81927        -5.23940        -8.79456
   C       -7.35855        -0.04616        -3.41799
   O       -7.16657         1.13130        -3.74007
   C       -7.97994        -0.50679        -2.17957
   C       -8.62425         0.34967        -1.32013
   N       -8.66365         1.66418        -1.56331
   C       -9.38281         2.59488        -0.87985
   S      -10.50101         2.12004         0.36627
   C      -10.98878         3.77453         0.52803
   N      -11.96554         4.08722         1.48334
   O      -12.29552         5.25414         1.58823
   O      -12.41269         3.16319         2.13794
   C      -10.33533         4.62324        -0.32283
   C       -9.38428         3.97050        -1.13485
   C       -8.55811         4.71108        -2.05081
   C       -7.34270         4.36713        -2.52786
   C       -6.53508         5.19842        -3.36195
   C       -5.60757         4.71861        -4.28987
   C       -5.06550         5.83275        -5.02708
   C       -5.66530         6.96405        -4.58879
   C       -6.54613         6.64182        -3.48723
   C       -7.05598         7.60664        -2.64364
   C       -7.49343         7.42681        -1.24837
   C       -7.84796         8.62305        -0.75740
   C       -7.67952         9.62192        -1.81537
   C       -7.17123         8.99485        -2.92406
   N       -7.95526        10.93096        -1.64026
   N       -5.31430         3.40636        -4.51142
   C       -4.27870         2.95205        -5.25362
   C       -3.99811         1.63947        -5.41230
   N       -2.92385         1.22443        -6.16176
   C       -2.49205        -0.03229        -6.31721
   S       -3.28349        -1.35765        -5.52740
   C       -2.09025        -2.44377        -6.18870
   N       -2.28239        -3.79121        -5.92428
   O       -1.46613        -4.59500        -6.33612
   O       -3.30033        -4.07481        -5.29458
   C       -1.13173        -1.81691        -6.93861
   C       -1.34546        -0.43210        -7.04837
   C       -0.54494         0.49601        -7.77346
   C        0.74792         0.30689        -8.15086
   C        1.54456         1.23786        -8.85211
   C        1.38226         2.57728        -9.10829
   C        0.50079         3.59900        -8.61254
   C       -0.11307         3.65466        -7.37772
   C       -1.10514         4.57714        -7.01467
   N       -2.01123         5.19647        -6.66695
   C        0.14304         2.75652        -6.32622
   N        0.29609         2.06715        -5.41951
   C        0.51992         4.70646        -9.56245
   C        1.54691         4.47312       -10.50995
   C        2.17442         3.16533       -10.22357
   O        3.11022         2.65608       -10.79586
   C        1.84882         5.36868       -11.50501
   C        1.09307         6.54575       -11.57535
   C        0.06455         6.76530       -10.62904
   C       -0.23295         5.86367        -9.61422
   S       -0.74358         8.27911       -10.90266
   C        0.30012         8.59539       -12.26304
   C        1.20577         7.61742       -12.50261
  Br        0.09282        10.18510       -13.23669
   H       -6.32362        -0.47827        -6.05389
   H       -7.17781        -4.54286        -3.25216
   H       -5.42635        -2.29778        -7.97362
   H       -9.13925        -0.00311        -0.43656
   H       -8.18176         1.95759        -2.42493
   H      -10.52048         5.68219        -0.34265
   H       -8.95603         5.68000        -2.31699
   H       -6.90833         3.40740        -2.27865
   H       -4.32246         5.77021        -5.79829
   H       -5.45745         7.96181        -4.92251
   H       -7.43775         6.50043        -0.71183
   H       -8.18407         8.85401         0.23665
   H       -6.95598         9.45978        -3.86578
   H       -8.44322        11.23492        -0.81679
   H       -7.88876        11.56450        -2.41710
   H       -5.91120         2.70503        -4.08145
   H       -3.65092         3.70448        -5.71040
   H       -4.58978         0.86240        -4.95467
   H       -2.36318         1.96098        -6.57186
   H       -0.33784        -2.35676        -7.42095
   H       -1.03562         1.41581        -8.06406
   H        1.21646        -0.64160        -7.92992
   H        2.42509         0.82281        -9.33483
   H        2.64449         5.17237       -12.20622
   H       -1.02549         6.07523        -8.91494
   H        1.92550         7.64910       -13.30011
*
