# ORCA input file
# SCF done       -210.953181591750          0.000929327348
! CAM-B3LYP def2-SVP def2/J RIJCOSX Grid4 TightSCF
%maxcore 5000
%tddft
    Mode sTDDFT
    Ethresh 5.0
    maxcore 5000
end

%pal
  nprocs 6
  end
* xyz 0 1
   C       -7.32521         2.93866         6.12909
   C       -7.41243         4.27153         5.83636
   F       -7.46360         5.17495         6.82207
   C       -7.45031         4.71112         4.49781
   F       -7.53855         6.02201         4.23907
   C       -7.39862         3.81115         3.47026
   C       -7.30878         2.43200         3.74006
   C       -7.27274         1.98537         5.09308
   C       -7.18749         0.60408         5.38933
   C       -7.14020        -0.30193         4.36436
   C       -7.17138         0.15676         3.01522
   C       -7.25339         1.48205         2.69682
   C       -7.10367        -0.99996         2.12159
   O       -7.09484        -0.99134         0.89014
   C       -7.04333        -2.18537         2.97901
   C       -7.05876        -1.76351         4.36081
   C       -7.01003        -2.56613         5.46995
   C       -6.93156        -3.97307         5.41886
   N       -6.86494        -5.11889         5.41877
   C       -7.03464        -2.08560         6.79533
   N       -7.05239        -1.74431         7.89095
   C       -6.99266        -3.45452         2.44203
   N       -7.00284        -3.58786         1.11496
   C       -6.95252        -4.69997         0.34460
   S       -6.76069        -6.30098         0.97541
   C       -6.72703        -6.90471        -0.65092
   N       -6.59128        -8.29226        -0.82231
   O       -6.56972        -8.72029        -1.95861
   O       -6.50738        -8.95902         0.19257
   C       -6.85009        -5.93586        -1.61078
   C       -6.99304        -4.64978        -1.05768
   C       -7.17658        -3.41119        -1.76160
   C       -6.86776        -3.17489        -3.05189
   C       -6.98931        -1.89437        -3.66879
   S       -6.41009        -1.68339        -5.28813
   C       -6.77781         0.01635        -5.27202
   C       -7.36104         0.38278        -4.06263
   C       -7.47193        -0.69574        -3.15565
   O       -8.05372        -0.65370        -1.93127
   S       -7.97011         0.74074        -1.02379
   C       -8.84091         1.78752        -2.21298
   S       -7.84680         2.03581        -3.72524
   C       -6.48543         0.83113        -6.39684
   C       -5.85187         0.44736        -7.57594
   C       -5.31375        -0.82639        -7.80848
   N       -4.83132        -1.84777        -8.01185
   C       -5.72514         1.51847        -8.50145
   C       -6.24280         2.69902        -7.98635
   S       -6.91474         2.52985        -6.41089
   S       -6.06855         4.08928        -9.00983
   C       -5.27778         3.07181       -10.16572
   C       -5.16875         1.73172        -9.79584
   C       -4.50868         0.97674       -10.79655
   C       -4.38794        -0.42153       -10.83005
   N       -4.30913        -1.56092       -10.93598
   C       -4.09535         1.76117       -11.86938
   S       -4.58905         3.42747       -11.69612
   C       -3.39119         1.36028       -13.03778
   C       -2.51456         0.33688       -13.18465
   C       -2.20350        -0.15419       -14.56456
   O       -2.45058         0.41590       -15.59926
   C       -1.60127        -1.48496       -14.36868
   C       -1.26885        -2.42355       -15.30369
   C       -0.74286        -3.66229       -14.87436
   C       -0.58513        -3.91203       -13.47913
   C       -0.07658        -5.15774       -13.05895
   C        0.26656        -6.10755       -13.97966
   C        0.11546        -5.85746       -15.35915
   C       -0.37935        -4.66163       -15.79839
   F        0.46154        -6.80594       -16.23883
   F        0.75298        -7.28876       -13.58053
   C       -0.92936        -2.91914       -12.53448
   C       -1.41677        -1.71811       -12.97550
   C       -1.82339        -0.52508       -12.24276
   C       -1.40658        -0.19964       -10.98177
   C       -1.66495         1.03726       -10.35926
   N       -1.83998         2.03488        -9.81866
   C       -0.59917        -1.03853       -10.18282
   N        0.06934        -1.66796        -9.49604
   H       -7.29727         2.62035         7.15948
   H       -7.42624         4.16227         2.45070
   H       -7.16296         0.30031         6.42326
   H       -7.27671         1.79455         1.66349
   H       -6.94827        -4.35148         3.04617
   H       -7.03746        -2.67217         0.61975
   H       -6.85688        -6.16071        -2.66144
   H       -7.57628        -2.59012        -1.18751
   H       -6.44919        -3.94996        -3.67807
   H       -9.79427         1.33287        -2.47362
   H       -8.98071         2.77081        -1.77512
   H       -3.61163         1.91808       -13.94316
   H       -1.40934        -2.22585       -16.35546
   H        0.04693        -5.36355       -12.00729
   H       -0.49048        -4.48716       -16.85713
   H       -0.81895        -3.13572       -11.48418
*
