# ORCA input file
# SCF done       -197.806032107380          0.001503228735
! CAM-B3LYP def2-SVP def2/J RIJCOSX Grid4 TightSCF
%maxcore 5000
%tddft
    Mode sTDDFT
    Ethresh 5.0
    maxcore 5000
end

%pal
  nprocs 6
  end
* xyz 0 1
   C       11.14309        -3.29926        -3.75259
   C       11.25992        -4.60715        -3.40243
   S       12.24607        -5.45716        -4.53409
   C       12.52384        -4.03112        -5.50267
   C       13.36315        -4.05845        -6.72085
   C       11.86280        -2.97564        -4.95215
   C       11.67168        -1.56127        -5.27287
   O       12.16223        -0.90613        -6.16317
   C       10.65496        -1.08948        -4.27468
   C       10.50844        -2.10293        -3.24454
   C       10.06003        -1.94693        -1.95805
   C       10.03435        -3.02551        -1.05046
   N        9.97896        -3.89244        -0.30031
   C        9.58279        -0.74100        -1.41729
   N        9.15972         0.21612        -0.94250
   C        9.97854         0.06304        -4.51848
   C        8.74521         0.50738        -3.96474
   C        7.73888        -0.37562        -3.48693
   C        6.54780         0.10584        -2.85048
   N        5.66111        -0.76228        -2.36408
   C        5.88184        -2.05628        -2.48411
   C        7.02299        -2.53197        -3.19023
   N        7.90746        -1.69018        -3.67625
   C        7.25626        -3.91684        -3.38665
   N        7.46896        -5.03282        -3.52963
   C        4.94678        -2.96867        -1.93672
   N        4.20486        -3.73283        -1.51504
   C        6.28201         1.51026        -2.69315
   C        7.23413         2.37255        -3.28448
   C        8.42727         1.87313        -3.92227
   N        9.17894         2.86713        -4.41604
   S        8.48004         4.25954        -4.10218
   N        7.17559         3.70385        -3.34635
   C        5.14651         1.87745        -1.96277
   C        4.65750         3.11060        -1.57477
   C        3.50177         3.24952        -0.76857
   C        3.20113         4.53878        -0.42770
   C        4.10800         5.46716        -0.96546
   S        5.33738         4.68189        -1.91498
   C        4.14875         6.85464        -0.79635
   C        3.36305         7.68446         0.01559
   C        3.77882         8.99236         0.00333
   C        4.89762         9.23667        -0.81828
   S        5.36258         7.77442        -1.63628
   C        5.63249        10.41973        -0.80911
   C        6.84033        10.68487        -1.43861
   C        7.68226        11.73858        -0.93782
   C        9.08749        11.77655        -1.23035
   N        9.85651        12.72231        -0.67826
   C        9.30863        13.60776         0.12357
   C        7.91536        13.56551         0.41727
   N        7.14452        12.63736        -0.11651
   C        7.33280        14.52965         1.27579
   N        6.88891        15.31979         1.97646
   C       10.12113        14.62641         0.68530
   N       10.74418        15.46263         1.15795
   C        9.71514        10.77890        -2.03219
   C        8.82552         9.95671        -2.77439
   C        7.41509         9.92547        -2.49737
   N        6.76583         9.12786        -3.33038
   S        7.80834         8.47277        -4.37256
   N        9.14566         9.16680        -3.79237
   C       11.11417        10.67080        -2.08298
   C       11.85466         9.57969        -2.47423
   C       13.25843         9.77066        -2.95740
   O       13.92056        10.77905        -2.87869
   C       13.61136         8.48518        -3.57162
   C       14.66696         7.97836        -4.26216
   S       14.33936         6.31181        -4.68188
   C       12.79586         6.33111        -3.90678
   C       12.54179         7.55167        -3.36553
   C       11.49982         8.19722        -2.59574
   C       10.46874         7.51739        -1.96612
   C       10.20433         6.17538        -2.21143
   N        9.92728         5.07079        -2.41091
   C        9.61545         8.06510        -0.99124
   N        8.89609         8.44334        -0.17893
   C       15.93039         8.64751        -4.64096
   H       10.82387        -5.13755        -2.57965
   H       14.37498        -4.38544        -6.48329
   H       13.40052        -3.06093        -7.15269
   H       12.95342        -4.75296        -7.45386
   H       10.41340         0.71869        -5.26641
   H        4.56601         1.02842        -1.61780
   H        2.93380         2.39175        -0.45394
   H        2.36517         4.82672         0.18388
   H        2.54197         7.31642         0.60397
   H        3.32571         9.77584         0.58467
   H        5.29848        11.18089        -0.11392
   H       11.67392        11.56159        -1.81747
   H       12.19258         5.44522        -3.92082
   H       15.91836         9.67011        -4.27053
   H       16.05040         8.65819        -5.72411
   H       16.78586         8.12189        -4.21738
*
