# ORCA input file
# SCF done       -159.465420679212          0.000553051585
! CAM-B3LYP def2-SVP def2/J RIJCOSX Grid4 TightSCF
%maxcore 5000
%tddft
    Mode sTDDFT
    Ethresh 5.0
    maxcore 5000
end

%pal
  nprocs 6
  end
* xyz 0 1
   C       19.39536        -6.88046       -15.50865
   C       19.12413        -6.67601       -14.21078
   C       19.50555        -5.56053       -13.39684
   C       19.07830        -5.63340       -12.11380
   C       18.33173        -6.80074       -11.81007
   S       18.19172        -7.81757       -13.22952
   C       17.76566        -7.14254       -10.59833
   C       17.79126        -6.41310        -9.39143
   C       17.11942        -7.01762        -8.36697
   C       16.53163        -8.25118        -8.70569
   S       16.86469        -8.63009       -10.38459
   C       15.78038        -9.06776        -7.87700
   C       15.21773       -10.27281        -8.25416
   C       14.42867       -11.06383        -7.43478
   C       13.81721       -12.28566        -7.76887
   C       13.05997       -12.82989        -6.76791
   C       13.03780       -12.05967        -5.59022
   S       14.02454       -10.62647        -5.78595
   C       12.34933       -12.30902        -4.41607
   C       11.46542       -13.36996        -4.12634
   C       10.91234       -13.30552        -2.88516
   C       11.32013       -12.18507        -2.10823
   S       12.46739       -11.23171        -3.04065
   C       10.93509       -11.96239        -0.81678
   C       11.27007       -10.92167         0.09342
   S       11.39955       -11.41889         1.77624
   C       11.83897        -9.83662         2.25571
   C       11.85028        -8.96369         1.20881
   C       11.51261        -9.56707        -0.02935
   C       11.30567        -8.72447        -1.24582
   C       12.12349        -7.43977        -1.15171
   C       11.77568        -6.69591         0.13115
   C       12.21663        -7.50811         1.35328
   C       11.58693        -7.00065         2.63459
   O       12.15894        -6.84447         3.68208
   O       10.27088        -6.77827         2.46449
   C        9.52123        -6.34877         3.52059
   C        8.23481        -5.98800         3.32540
   C        7.30622        -5.51118         4.29597
   C        6.08846        -5.20312         3.78149
   C        5.97072        -5.41700         2.38674
   S        7.47550        -6.03994         1.73575
   C        4.86675        -5.18300         1.58978
   C        3.60949        -4.67476         1.97640
   C        2.72315        -4.55052         0.94441
   C        3.22805        -4.95337        -0.30691
   S        4.88477        -5.50147        -0.13234
   C        2.55551        -4.93590        -1.51635
   C        3.08981        -5.34688        -2.72471
   C        2.41408        -5.32385        -3.93232
   C        2.90952        -5.73271        -5.18618
   C        2.02169        -5.59643        -6.21457
   C        0.77255        -5.06901        -5.82355
   S        0.76424        -4.75481        -4.09977
   C       -0.32530        -4.80745        -6.61755
   C       -0.44475        -5.01083        -8.01715
   C       -1.64527        -4.65690        -8.53312
   C       -2.57413        -4.14315        -7.57044
   S       -1.81207        -4.14432        -5.97186
   C       -3.82734        -3.71447        -7.78204
   H       19.96462        -6.16079       -16.06977
   H       19.05606        -7.75907       -16.02556
   H       20.08287        -4.75183       -13.80842
   H       19.27416        -4.88385       -11.36749
   H       18.29609        -5.46758        -9.30727
   H       17.02930        -6.60805        -7.37601
   H       15.62142        -8.72221        -6.86290
   H       15.38925       -10.62825        -9.26254
   H       13.94702       -12.72970        -8.74031
   H       12.52207       -13.75706        -6.85258
   H       11.25729       -14.14529        -4.84180
   H       10.21388       -14.02398        -2.49368
   H       10.35727       -12.76602        -0.37328
   H       12.07232        -9.63667         3.28294
   H       10.24145        -8.47165        -1.31035
   H       11.56524        -9.26528        -2.15292
   H       11.90849        -6.80853        -2.01500
   H       13.18790        -7.68245        -1.16577
   H       10.69662        -6.53741         0.16970
   H       12.26546        -5.72053         0.15448
   H       13.30381        -7.43628         1.47875
   H       10.01404        -6.30408         4.48193
   H        7.58356        -5.41293         5.32961
   H        5.26732        -4.82476         4.36360
   H        3.38956        -4.41351         2.99577
   H        1.71846        -4.18001         1.04900
   H        1.53569        -4.57173        -1.50429
   H        4.10830        -5.71447        -2.73806
   H        3.90891        -6.11638        -5.29457
   H        2.23479        -5.85989        -7.23491
   H        0.36771        -5.41342        -8.59586
   H       -1.91777        -4.73813        -9.57035
   H       -4.25242        -3.72947        -8.76999
   H       -4.44149        -3.34517        -6.98159
*
