# ORCA input file
# SCF done       -206.794577592215          0.000434374126
! CAM-B3LYP def2-SVP def2/J RIJCOSX Grid4 TightSCF
%maxcore 5000
%tddft
    Mode sTDDFT
    Ethresh 5.0
    maxcore 5000
end

%pal
  nprocs 6
  end
* xyz 0 1
   C        8.46862        -5.85564        -7.12763
   C        8.60108        -5.06990        -6.05114
   C        9.19817        -3.76587        -5.98332
   C        9.18776        -3.20829        -4.75375
   C        8.58612        -4.01493        -3.74626
   S        8.03113        -5.53072        -4.43951
   C        8.42504        -3.71360        -2.41959
   C        8.81549        -2.53358        -1.73302
   C        8.50121        -2.53292        -0.41603
   C        7.83730        -3.70906         0.04934
   S        7.64984        -4.82318        -1.30388
   C        7.41585        -3.88620         1.33235
   C        6.73564        -4.98591         1.94713
   C        6.45924        -6.19369         1.28308
   C        5.80091        -7.20101         1.94152
   C        5.35018        -7.01828         3.26189
   C        5.62456        -5.83586         3.93742
   C        6.32220        -4.84405         3.28470
   C        4.59597        -8.18454         3.65832
   C        4.59033        -9.09793         2.59017
   C        5.41239        -8.57047         1.43237
   C        6.64100        -9.49739         1.27981
   C        7.70971        -9.02849         0.30101
   C        4.59977        -8.49241         0.13155
   C        3.32482        -7.67271         0.29364
   C        3.92362       -10.29269         2.70122
   C        3.21193       -10.59168         3.87425
   C        3.22925        -9.66914         4.92888
   C        3.91769        -8.47787         4.83346
   C        2.49553       -11.84417         3.94747
   C        1.52139       -12.13799         4.83177
   C        0.81424       -13.37396         4.91935
   S       -0.22833       -13.63093         6.27973
   C       -0.62354       -15.24802         5.78055
   C        0.02021       -15.55713         4.58483
   C        0.81389       -14.49070         4.09386
   O        1.49674       -14.53346         2.89666
   C        0.81359       -13.88959         1.82586
   C        1.69099       -13.97024         0.58868
   O       -0.16492       -16.77880         4.03021
   C        0.70915       -17.22632         3.00531
   C        0.54617       -18.73512         2.90317
   C       -1.49579       -16.01814         6.59404
   C       -1.83981       -17.31452         6.41056
   C       -2.69870       -18.00434         7.31201
   C       -2.94963       -19.32891         7.25112
   C       -3.77431       -20.07211         8.17508
   C       -3.59196       -21.46060         8.28306
   C       -4.31925       -22.18086         9.19941
   C       -5.24631       -21.52949        10.03346
   C       -5.46727       -20.16498         9.90839
   C       -4.73459       -19.45049         8.98430
   C       -5.78113       -22.48875        10.97191
   C       -5.17086       -23.73266        10.73582
   C       -4.26103       -23.65688         9.52671
   C       -2.83409       -24.12810         9.83994
   C       -2.21940       -23.37246        11.01255
   C       -4.91693       -24.51755         8.42135
   C       -4.27069       -24.43226         7.04495
   C       -5.44917       -24.80826        11.53955
   C       -6.35974       -24.67425        12.60400
   C       -6.97683       -23.43011        12.80824
   C       -6.69353       -22.34363        12.00847
   C       -6.58960       -25.81251        13.45143
   C       -7.55052       -25.93103        14.40187
   C       -7.74942       -27.02946        15.27151
   C       -6.96513       -28.13046        15.48782
   C       -7.26548       -29.15783        16.42643
   C       -6.32900       -30.13399        16.52620
   C       -5.21497       -29.95252        15.66764
   S       -5.42383       -28.49002        14.72070
   C       -4.10604       -30.75090        15.54289
   C       -3.82196       -31.95339        16.24898
   C       -2.64118       -32.52527        15.92726
   C       -1.88873       -31.81612        14.93202
   S       -2.79477       -30.37729        14.43686
   C       -0.69245       -32.14012        14.42324
   H        8.83080        -5.53557        -8.08861
   H        8.00336        -6.82234        -7.06861
   H        9.60808        -3.30568        -6.86501
   H        9.59130        -2.23776        -4.52405
   H        9.31315        -1.72474        -2.23770
   H        8.71818        -1.72246         0.25822
   H        7.61755        -3.05007         1.99299
   H        6.75747        -6.32079         0.25662
   H        5.29172        -5.69379         4.95503
   H        6.54299        -3.92031         3.80112
   H        6.27748       -10.47965         0.96860
   H        7.09714        -9.61372         2.26676
   H        7.30087        -8.87540        -0.69400
   H        8.48998        -9.78384         0.23219
   H        8.16605        -8.10234         0.63861
   H        4.34344        -9.50556        -0.18616
   H        5.21466        -8.03989        -0.64728
   H        2.67579        -8.11281         1.04789
   H        2.78233        -7.63214        -0.64825
   H        3.56235        -6.65564         0.59759
   H        3.91820       -11.00209         1.88534
   H        2.71000        -9.90371         5.84533
   H        3.92691        -7.78429         5.66131
   H        2.77842       -12.58639         3.21516
   H        1.22478       -11.40791         5.57295
   H        0.60909       -12.84258         2.08813
   H       -0.15001       -14.39044         1.64783
   H        2.63327       -13.45853         0.76464
   H        1.18473       -13.50452        -0.25202
   H        1.90462       -15.00868         0.34884
   H        1.74433       -16.96360         3.24802
   H        0.44285       -16.75534         2.05085
   H        0.82998       -19.20663         3.84058
   H        1.17545       -19.12030         2.10591
   H       -0.49082       -18.98192         2.68993
   H       -1.89160       -15.49044         7.45392
   H       -1.44115       -17.86137         5.57040
   H       -3.13162       -17.41103         8.10669
   H       -2.45457       -19.91269         6.48410
   H       -2.84379       -21.93694         7.66598
   H       -6.19259       -19.66685        10.53493
   H       -4.90713       -18.39024         8.87914
   H       -2.20744       -23.98555         8.95842
   H       -2.85686       -25.19604        10.06737
   H       -2.17542       -22.30644        10.79939
   H       -1.20910       -23.72879        11.20119
   H       -2.80975       -23.51719        11.91455
   H       -5.96301       -24.21096         8.33565
   H       -4.90551       -25.55650         8.75918
   H       -4.34426       -23.42446         6.64552
   H       -4.78604       -25.10517         6.36245
   H       -3.22446       -24.72465         7.07902
   H       -4.97267       -25.76437        11.37485
   H       -7.67243       -23.31086        13.62465
   H       -7.16813       -21.39094        12.19272
   H       -5.92561       -26.64753        13.27680
   H       -8.26484       -25.12750        14.52404
   H       -8.64167       -26.98544        15.88538
   H       -8.17344       -29.12856        17.00381
   H       -6.39959       -30.97480        17.19283
   H       -4.50936       -32.34983        16.97544
   H       -2.25916       -33.43387        16.35819
   H       -0.17730       -33.02474        14.75366
   H       -0.21313       -31.53583        13.67526
*
