# ORCA input file
# SCF done       -194.657233898659          0.000634589854
! CAM-B3LYP def2-SVP def2/J RIJCOSX Grid4 TightSCF
%maxcore 5000
%tddft
    Mode sTDDFT
    Ethresh 5.0
    maxcore 5000
end

%pal
  nprocs 6
  end
* xyz 0 1
   C       15.24189        -4.46343         0.29295
   C       14.28841        -4.28482        -0.63074
   C       14.36868        -3.51100        -1.83755
   C       13.24267        -3.51734        -2.58265
   C       12.17898        -4.29053        -2.03645
   S       12.67913        -5.01399        -0.51582
   C       10.93153        -4.48879        -2.56753
   C       10.40647        -3.98106        -3.78546
   C        9.13665        -4.37338        -4.04368
   C        8.55316        -5.22285        -3.05447
   S        9.72414        -5.47431        -1.76153
   C        7.30826        -5.76526        -3.15462
   C        6.60249        -6.64453        -2.27098
   C        5.41701        -7.24202        -2.74538
   C        4.72689        -8.11945        -1.95128
   C        5.17660        -8.41286        -0.65081
   C        6.32629        -7.81131        -0.15895
   C        7.02810        -6.94223        -0.96722
   C        4.27452        -9.37250        -0.05636
   C        3.27317        -9.68597        -0.99076
   C        3.46784        -8.89555        -2.26443
   C        3.66486        -9.82095        -3.47849
   C        4.82773       -10.78927        -3.29842
   C        2.27803        -7.95209        -2.52112
   C        2.01897        -7.00061        -1.35925
   C        2.30674       -10.61403        -0.69174
   C        2.30894       -11.24999         0.55947
   C        3.30316       -10.90948         1.48580
   C        4.28124        -9.98273         1.18982
   C        1.31656       -12.27038         0.82320
   C        1.06304       -12.83274         2.01529
   C        0.14985       -13.92568         2.27120
   C       -0.19198       -14.23699         3.61008
   O        0.31926       -13.42282         4.56765
   C        0.03169       -13.68378         5.92643
   C        0.77372       -12.64805         6.75728
   C       -1.03637       -15.30258         3.86714
   C       -1.52001       -16.11743         2.84524
   O       -2.35964       -17.11168         3.24970
   C       -3.51728       -17.41074         2.48584
   C       -4.72997       -17.37609         3.40883
   C       -1.13152       -15.87396         1.51594
   C       -0.34593       -14.74753         1.26960
   C       -1.40345       -16.77073         0.40868
   C       -1.34098       -18.11849         0.49874
   C       -1.52785       -18.99934        -0.59134
   C       -1.35443       -20.35209        -0.51418
   C       -1.50650       -21.30469        -1.55679
   C       -1.22918       -22.58464        -1.19477
   C       -0.83485       -22.73032         0.15714
   S       -0.85618       -21.17231         0.96341
   C       -0.44720       -23.87555         0.81252
   C       -0.35459       -25.19384         0.30347
   C        0.09782       -26.10218         1.20384
   C        0.40087       -25.57529         2.49436
   S        0.05007       -23.84725         2.49329
   C        0.91160       -26.31129         3.52039
   C        1.28454       -25.91827         4.84561
   C        1.96068       -26.85611         5.66762
   O        2.20417       -28.07418         5.11826
   C        2.89041       -29.05897         5.86265
   C        3.02281       -30.28928         4.97819
   C        2.34136       -26.50559         6.95396
   C        2.07244       -25.23975         7.46532
   O        2.43147       -24.84162         8.71204
   C        3.11982       -25.73071         9.56588
   C        3.38635       -24.99660        10.87110
   C        1.39679       -24.28978         6.67010
   C        1.01944       -24.66181         5.39062
   C        1.10947       -22.96948         7.21666
   C        0.71175       -21.90699         6.52679
   H       16.20700        -4.00149         0.18184
   H       15.07764        -5.06771         1.16606
   H       15.27207        -2.98461        -2.09069
   H       13.12906        -2.99242        -3.51494
   H       10.98859        -3.34783        -4.43106
   H        8.58091        -4.08986        -4.92079
   H        6.77817        -5.51587        -4.06747
   H        5.07445        -7.01339        -3.74523
   H        6.67252        -8.02223         0.84179
   H        7.91590        -6.47116        -0.57809
   H        3.83852        -9.20586        -4.36435
   H        2.74445       -10.38626        -3.64080
   H        5.75900       -10.24678        -3.15117
   H        4.93121       -11.42000        -4.17867
   H        4.66356       -11.42801        -2.43341
   H        1.38552        -8.55573        -2.70058
   H        2.47827        -7.37385        -3.42605
   H        1.79392        -7.55683        -0.45200
   H        1.17480        -6.35285        -1.58536
   H        2.89118        -6.37818        -1.17170
   H        1.54101       -10.86691        -1.41233
   H        3.31968       -11.40029         2.44644
   H        5.04703        -9.74531         1.91358
   H        0.75010       -12.58366        -0.04456
   H        1.56826       -12.46963         2.89801
   H        0.36159       -14.69644         6.19528
   H       -1.05006       -13.60726         6.10375
   H        1.84331       -12.72886         6.58305
   H        0.57163       -12.80581         7.81275
   H        0.45187       -11.64867         6.47696
   H       -1.35447       -15.54487         4.86826
   H       -3.40923       -18.41061         2.04834
   H       -3.63727       -16.68812         1.67196
   H       -4.58745       -18.07527         4.22806
   H       -5.62271       -17.65299         2.85499
   H       -4.86161       -16.37876         3.82163
   H       -0.05184       -14.55817         0.24842
   H       -1.54787       -16.31153        -0.56204
   H       -1.09655       -18.57299         1.45070
   H       -1.80958       -18.57991        -1.54855
   H       -1.81290       -21.00305        -2.54344
   H       -1.28851       -23.42889        -1.85882
   H       -0.61951       -25.42680        -0.71269
   H        0.23731       -27.14809         0.99186
   H        1.09065       -27.35443         3.29516
   H        2.32817       -29.30700         6.77400
   H        3.88555       -28.69153         6.15006
   H        2.03769       -30.64887         4.69382
   H        3.54948       -31.07499         5.51210
   H        3.57413       -30.03850         4.07608
   H        2.85642       -27.22536         7.56814
   H        4.06928       -26.03933         9.10600
   H        2.51054       -26.62629         9.75357
   H        3.92275       -25.64483        11.55814
   H        2.44665       -24.69413        11.32492
   H        3.98060       -24.10735        10.68004
   H        0.47345       -23.94844         4.79942
   H        1.26226       -22.88665         8.28394
   H        0.56524       -21.92184         5.46026
   H        0.51732       -20.96763         7.01541
*
