# ORCA input file
# SCF done       -175.242041587239          0.000420053442
! CAM-B3LYP def2-SVP def2/J RIJCOSX Grid4 TightSCF
%maxcore 5000
%tddft
    Mode sTDDFT
    Ethresh 5.0
    maxcore 5000
end

%pal
  nprocs 6
  end
* xyz 0 1
   C       -3.86327         0.53872        -0.50915
   S       -3.67372        -1.06772         0.09267
   C       -3.72054         0.57029        -1.85851
   C       -3.76070         1.55949        -2.95390
   O       -3.95699         2.74673        -2.92775
   N       -3.51750         0.81662        -4.10522
   C       -3.47165         1.40340        -5.42163
   C       -3.32543        -0.54499        -3.88031
   O       -3.10624        -1.36243        -4.73928
   C       -3.45630        -0.70289        -2.42747
   C       -3.39484        -1.72701        -1.51459
   C       -3.15135        -3.09957        -1.77887
   C       -3.12087        -4.06287        -0.83080
   C       -2.88170        -5.44129        -1.08037
   S       -2.91086        -6.56793         0.24803
   C       -2.56424        -7.91392        -0.80005
   C       -2.43411        -7.46977        -2.12069
   C       -2.61439        -6.08818        -2.26990
   C       -2.15375        -8.32249        -3.20507
   N       -1.92643        -8.97985        -4.11601
   C       -2.44868        -9.24043        -0.33769
   C       -2.62227        -9.59687         0.96632
   C       -2.52184       -10.92673         1.42519
   N       -2.71218       -11.30427         2.73377
   C       -2.96540       -10.43401         3.85639
   C       -1.69427        -9.73303         4.32956
   C       -2.57348       -12.69246         2.90869
   O       -2.70130       -13.24742         3.98057
   C       -2.27801       -13.19252         1.58241
   C       -2.24998       -12.09144         0.70021
   C       -1.95020       -12.58581        -0.62664
   O       -1.82843       -12.02142        -1.69468
   N       -1.81708       -13.97254        -0.45676
   C       -1.47585       -14.82690        -1.56884
   C        0.00723       -15.18922        -1.57448
   C       -2.00735       -14.35716         0.85201
   C       -1.94229       -15.69287         1.29544
   C       -2.18783       -16.05772         2.58889
   C       -2.14059       -17.38411         3.06916
   C       -2.47874       -17.78783         4.34935
   C       -2.31023       -19.19244         4.46255
   C       -1.81805       -19.64995         3.14748
   C       -1.73352       -18.57085         2.32784
   C       -1.49654       -20.95862         2.77094
   N       -1.21978       -22.01651         2.41791
   C       -2.56385       -19.99407         5.55490
   C       -2.35982       -21.39926         5.66088
   C       -2.76056       -21.81991         6.90937
   C       -3.24376       -20.66129         7.64672
   C       -3.12243       -19.56672         6.85017
   C       -3.49012       -18.26702         7.21672
   N       -3.80072       -17.21144         7.54629
   C       -2.71117       -23.14947         7.40153
   S       -2.01217       -24.41691         6.41135
   C       -3.13479       -23.69648         8.59535
   C       -3.79314       -23.23898         9.82897
   O       -4.16969       -22.14339        10.16905
   N       -3.92307       -24.38220        10.60748
   C       -4.53220       -24.37743        11.91427
   C       -3.41785       -25.53208        10.01666
   O       -3.43783       -26.62215        10.53518
   C       -2.90596       -25.09194         8.70845
   C       -2.29726       -25.65478         7.60931
   C       -1.88732       -26.99858         7.31363
   C       -2.03980       -28.03606         8.13621
   H       -4.06474         1.34156         0.17152
   H       -3.75291         2.45086        -5.32948
   H       -4.16523         0.88286        -6.08246
   H       -2.46508         1.32413        -5.83510
   H       -2.99068        -3.33240        -2.82246
   H       -3.29257        -3.78664         0.20234
   H       -2.54857        -5.58797        -3.21912
   H       -2.21396        -9.99307        -1.08130
   H       -2.86010        -8.82794         1.68982
   H       -3.34803       -11.07594         4.65480
   H       -3.73642        -9.70593         3.58905
   H       -0.95559       -10.47087         4.63262
   H       -1.92039        -9.09852         5.18184
   H       -1.26716        -9.11976         3.53898
   H       -1.71531       -14.25704        -2.47104
   H       -2.09911       -15.72527        -1.54469
   H        0.60796       -14.28671        -1.65452
   H        0.22609       -15.82775        -2.42576
   H        0.28810       -15.71125        -0.66220
   H       -1.70291       -16.44879         0.56189
   H       -2.44732       -15.29564         3.31217
   H       -2.81983       -17.14143         5.13408
   H       -1.40812       -18.58947         1.30430
   H       -1.95620       -22.02494         4.88867
   H       -3.62908       -20.69304         8.64813
   H       -4.89051       -23.36838        12.10987
   H       -3.80153       -24.66709        12.67068
   H       -5.36306       -25.08322        11.93878
   H       -1.42553       -27.12523         6.34266
   H       -2.49611       -27.93128         9.10571
   H       -1.70720       -29.01911         7.85143
*
