# ORCA input file
# SCF done       -150.086321504683          0.000765013529
! CAM-B3LYP def2-SVP def2/J RIJCOSX Grid4 TightSCF
%maxcore 5000
%tddft
    Mode sTDDFT
    Ethresh 5.0
    maxcore 5000
end

%pal
  nprocs 6
  end
* xyz 0 1
   C        1.49197         0.15710        -3.32547
   C        0.39792         0.82660        -3.78065
   S       -0.72923        -0.25055        -4.51875
   C        0.28874        -1.63711        -4.20298
  Cl       -0.17077        -3.19559        -4.67686
   C        1.43186        -1.25408        -3.56857
   C        2.63140        -1.90643        -3.03363
   O        2.85378        -3.08825        -2.91819
   C        3.46150        -0.77870        -2.50033
   C        2.73768         0.47422        -2.65805
   C        3.15149         1.73247        -2.31842
   C        2.34328         2.86374        -2.56134
   N        1.69633         3.79275        -2.74640
   C        4.38752         2.04850        -1.71912
   N        5.38223         2.36402        -1.24147
   C        4.64409        -0.96315        -1.87008
   N        5.35407        -2.13188        -1.96992
   C        5.53594        -2.87142        -3.17951
   O        5.13569        -2.51062        -4.25114
   C        6.39169        -3.99074        -2.81094
   C        6.77389        -3.88784        -1.51054
   C        6.13167        -2.66012        -0.94320
   O        6.21468        -2.18174         0.15776
   C        7.64993        -4.74811        -0.79716
   C        7.99573        -4.55527         0.50356
   C        8.91784        -5.38510         1.18633
   N        9.26410        -5.20863         2.50630
   C        8.69337        -4.25072         3.42360
   C        7.30435        -4.67302         3.89455
   C       10.23624        -6.12932         2.92484
   O       10.69637        -6.15993         4.04957
   C       10.50334        -6.92811         1.74774
   C        9.67310        -6.45321         0.70256
   C        9.95066        -7.24255        -0.47824
   O        9.48948        -7.22120        -1.60151
   N       10.94263        -8.14956        -0.06449
   C       11.52598        -9.08728        -0.99368
   C       12.86299        -8.58976        -1.53825
   C       11.29014        -7.96774         1.25289
   C       12.28991        -8.72983         1.91517
   C       12.61921        -8.52242         3.21119
   C       13.65282        -9.22394         3.92077
   C       14.27267       -10.40955         3.49373
   N       15.25855       -10.97263         4.15263
   C       15.64917       -10.40285         5.28957
   N       15.09420        -9.31756         5.82402
   C       14.12846        -8.73770         5.15243
   C       16.77150       -11.02122         6.01223
   N       17.38100       -10.28024         6.93231
   C       18.39092       -10.84254         7.57093
   C       18.81169       -12.13634         7.31062
   C       18.10907       -12.83860         6.32414
   N       17.09159       -12.26330         5.68599
   C       18.40232       -14.20714         5.91385
   C       19.36206       -14.97957         6.40716
   H        0.17257         1.87357        -3.73310
   H        5.10083        -0.20374        -1.24568
   H        6.68830        -4.74442        -3.51583
   H        8.05929        -5.58372        -1.35056
   H        7.56942        -3.72418         1.04548
   H        8.65824        -3.26541         2.95131
   H        9.37559        -4.20982         4.27731
   H        6.61274        -4.74226         3.05809
   H        6.92153        -3.94344         4.60242
   H        7.35497        -5.64172         4.38611
   H       10.81069        -9.18357        -1.81525
   H       11.63783       -10.06104        -0.50940
   H       12.72256        -7.64474        -2.05698
   H       13.26647        -9.31423        -2.24008
   H       13.58248        -8.43985        -0.73620
   H       12.80433        -9.48257         1.33593
   H       12.10480        -7.75093         3.77031
   H       13.95318       -10.93129         2.60009
   H       13.70682        -7.84189         5.59215
   H       18.87789       -10.22542         8.31565
   H       19.63904       -12.57286         7.84415
   H       17.74437       -14.56771         5.13569
   H       20.03442       -14.65339         7.18291
   H       19.51081       -15.98302         6.04709
*
