# ORCA input file
# SCF done       -186.587934734765          0.000944928101
! CAM-B3LYP def2-SVP def2/J RIJCOSX Grid4 TightSCF
%maxcore 5000
%tddft
    Mode sTDDFT
    Ethresh 5.0
    maxcore 5000
end

%pal
  nprocs 6
  end
* xyz 0 1
   C        2.88252         2.62371         1.97812
   C        2.48033         3.74041         2.64362
   S        2.67372         3.55475         4.34797
   C        3.31328         1.93813         4.16561
  Cl        3.77815         1.01526         5.50707
   C        3.35842         1.58953         2.84823
   C        3.76813         0.42104         2.06404
   O        4.22287        -0.62375         2.46847
   C        3.55000         0.82918         0.63815
   C        2.96981         2.16698         0.60689
   C        2.53868         2.87207        -0.48329
   C        1.98563         4.16377        -0.34948
   N        1.53507         5.21444        -0.25675
   C        2.57328         2.41824        -1.81726
   N        2.56226         2.09468        -2.91842
   C        3.98541         0.12035        -0.43148
   C        4.54740        -1.20206        -0.37406
   C        3.97423        -2.27187         0.33270
   N        4.54561        -3.44733         0.41445
   C        5.70443        -3.63109        -0.22211
   N        6.27410        -2.71356        -1.00627
   C        5.71980        -1.53323        -1.07842
   C        6.42128        -4.87573        -0.09490
   N        5.95814        -6.01643         0.49680
   C        4.64225        -6.26121         1.03888
   C        3.62382        -6.52591        -0.06542
   C        6.92711        -7.04160         0.46939
   O        6.75394        -8.14056         0.95059
   C        8.06576        -6.43996        -0.19246
   C        7.72520        -5.10540        -0.51979
   C        8.89805        -4.47254        -1.10505
   O        9.11599        -3.36260        -1.52288
   N        9.87345        -5.49900        -1.09570
   C       11.22116        -5.23487        -1.54250
   C       12.11979        -4.82593        -0.37790
   C        9.39396        -6.66497        -0.55894
   C       10.15849        -7.85179        -0.43389
   C        9.62334        -9.04488        -0.05387
   C       10.42872       -10.20294         0.06831
   O       11.76222       -10.09931         0.06200
   C       12.29817       -11.34218         0.17842
   C       11.28572       -12.27704         0.27658
   C       10.07061       -11.56142         0.20992
   C        8.72047       -12.07468         0.21440
   O        7.71075       -11.45768        -0.00827
   C        8.63480       -13.60007         0.52755
   F        9.24354       -13.90697         1.68700
   F        7.37945       -14.02418         0.61442
   F        9.24005       -14.33484        -0.42432
   C       13.70842       -11.49249         0.14654
   C       14.54122       -10.41977         0.08164
   C       15.93988       -10.53280        -0.03973
   C       16.86437        -9.53892        -0.18474
   C       18.30634        -9.92008        -0.04487
   O       18.74277       -11.04543         0.00061
   C       19.02209        -8.64624         0.05773
   C       20.30245        -8.22954         0.26411
   S       20.37994        -6.48309         0.28450
   C       18.68318        -6.34198         0.00430
   C       18.09414        -7.56478        -0.09300
   C       16.76404        -8.10020        -0.34161
   C       15.72099        -7.31249        -0.76060
   C       15.85286        -5.90840        -0.84952
   N       15.89048        -4.76355        -0.91999
   C       14.44224        -7.68332        -1.21310
   N       13.38067        -7.83940        -1.62649
  Cl       21.68861        -9.17717         0.48410
   H        2.08744         4.65917         2.25556
   H        3.96668         0.57779        -1.41330
   H        3.00664        -2.17885         0.80609
   H        6.23151        -0.80416        -1.69269
   H        4.33784        -5.40202         1.63756
   H        4.73965        -7.14673         1.67295
   H        3.52100        -5.65232        -0.70422
   H        2.65733        -6.75015         0.37620
   H        3.93590        -7.37385        -0.67044
   H       11.15243        -4.40836        -2.25460
   H       11.62374        -6.11310        -2.05051
   H       11.71994        -3.93761         0.10474
   H       13.11869        -4.60256        -0.74209
   H       12.18540        -5.62423         0.35879
   H       11.20984        -7.80710        -0.68671
   H        8.56687        -9.15852         0.14829
   H       11.41828       -13.33499         0.37315
   H       14.09169       -12.50218         0.14122
   H       14.09925        -9.43777         0.12456
   H       16.36151       -11.53128         0.02515
   H       18.24669        -5.36517        -0.05844
*
