# ORCA input file
# SCF done       -201.632223683660          0.000976628806
! CAM-B3LYP def2-SVP def2/J RIJCOSX Grid4 TightSCF
%maxcore 5000
%tddft
    Mode sTDDFT
    Ethresh 5.0
    maxcore 5000
end

%pal
  nprocs 6
  end
* xyz 0 1
   C       -2.09649         1.93127         1.00636
   C       -2.31678         3.20402         1.45881
   C       -3.37462         3.56368         2.31971
   N       -4.20737         3.89925         3.03510
   C       -1.46156         4.29578         1.20378
   N       -0.76380         5.20194         1.09362
   C       -2.80185         0.73908         1.46006
   C       -1.99097        -0.40127         1.18457
   C       -2.38113        -1.66024         1.53973
   C       -3.62436        -1.84003         2.18707
   C       -4.44801        -0.70652         2.44665
   C       -4.01575         0.58693         2.07335
   C       -5.68897        -0.90269         3.08624
   C       -6.09672        -2.15510         3.45648
   C       -5.28419        -3.27001         3.20216
   C       -4.07473        -3.11553         2.58101
   C       -0.76552         0.02583         0.48333
   O        0.17754        -0.65179         0.14707
   C       -0.96345         1.47950         0.21758
   C       -0.21892         2.12579        -0.71172
   C       -0.55596         3.37153        -1.32586
   C        0.44859         4.30709        -1.66959
   C        0.13802         5.69051        -1.92612
   N        1.14082         6.58650        -2.00339
   C        2.37032         6.17004        -1.88149
   C        2.67355         4.80380        -1.71439
   N        1.73277         3.90998        -1.60620
   C       -1.20770         6.12008        -1.96393
   C       -2.18551         5.10333        -1.97930
   C       -1.88368         3.75892        -1.56791
   N       -2.99506         3.02765        -1.44048
   S       -4.25653         3.93592        -1.82712
   N       -3.48447         5.28197        -2.20804
   C       -1.70176         7.40921        -1.57925
   N       -1.26949         8.65958        -1.89144
   C       -0.36819         9.01727        -2.96127
   C       -1.00372         8.75816        -4.32422
   C       -1.97321         9.64954        -1.16154
   O       -1.78616        10.83911        -1.29390
   C       -2.87083         8.89425        -0.31479
   C       -2.71423         7.52480        -0.62116
   C       -3.55226         6.77653         0.28498
   O       -3.76705         5.58123         0.41491
   N       -4.18419         7.75245         1.07640
   C       -5.03087         7.34030         2.17069
   C       -4.31737         7.45288         3.51470
   C       -3.77562         9.02284         0.73696
   C       -4.14669        10.28723         1.26292
   C       -5.04935        10.62243         2.21504
   C       -5.30876        11.97095         2.58825
   S       -4.43719        13.30767         1.89365
   C       -5.34015        14.44595         2.82601
   C       -5.02169        15.88695         2.79672
   O       -5.23817        16.61616         3.72943
   O       -4.44710        16.34423         1.67963
   C       -6.27431        13.81979         3.63565
   C       -6.23266        12.41896         3.50617
   C       -7.20421        14.49980         4.51453
   C       -7.93160        15.58329         4.18186
   C       -8.77667        16.37888         5.06768
   C       -9.19579        16.03526         6.32248
   C      -10.01695        16.84964         7.13275
   N      -10.68707        17.45881         7.83756
   C       -8.91486        14.80960         6.96366
   N       -8.74578        13.82764         7.53439
   C       -9.11957        17.60202         4.35732
   C       -8.64028        17.50820         3.01858
   C       -7.95207        16.22663         2.83113
   O       -7.53202        15.76540         1.79187
   C       -8.82038        18.51631         2.11458
   C       -9.49235        19.69052         2.51798
   C       -9.96960        19.79571         3.85728
   C       -9.77374        18.73437         4.76911
   C      -10.63566        20.97525         4.24937
   C      -10.82199        22.00141         3.36387
   C      -10.35187        21.89658         2.04584
   C       -9.70143        20.76608         1.63203
   H       -1.74966        -2.51066         1.32913
   H       -4.65957         1.42957         2.27217
   H       -6.30952        -0.04082         3.28313
   H       -7.04768        -2.29406         3.94904
   H       -5.62083        -4.25133         3.50221
   H       -3.44446        -3.97020         2.38296
   H        0.69688         1.65114        -1.04524
   H        3.14612         6.91963        -1.95654
   H        3.69334         4.44559        -1.69421
   H        0.55318         8.44168        -2.85234
   H       -0.16095        10.08327        -2.83641
   H       -1.23700         7.70174        -4.44005
   H       -0.31611         9.05202        -5.11221
   H       -1.92214         9.33128        -4.43147
   H       -5.26862         6.28843         1.98526
   H       -5.95953         7.91649         2.15400
   H       -3.44862         6.79922         3.52042
   H       -4.98638         7.13825         4.31054
   H       -3.98743         8.47144         3.70706
   H       -3.60723        11.09461         0.77863
   H       -5.63794         9.88633         2.74014
   H       -4.40035        15.68207         0.97587
   H       -6.88535        11.76028         4.05146
   H       -7.29358        14.06773         5.50288
   H       -8.44570        18.42037         1.10639
   H      -10.14002        18.84716         5.77729
   H      -10.99611        21.05157         5.26466
   H      -11.33250        22.90075         3.67417
   H      -10.50712        22.71668         1.36090
   H       -9.33625        20.67970         0.61918
*
