# ORCA input file
# SCF done       -221.432264347218          0.000936555404
! CAM-B3LYP def2-SVP def2/J RIJCOSX Grid4 TightSCF
%maxcore 5000
%tddft
    Mode sTDDFT
    Ethresh 5.0
    maxcore 5000
end

%pal
  nprocs 6
  end
* xyz 0 1
   C       -4.50068         2.38634         2.67318
   C       -5.12182         2.88923         1.56153
   C       -6.50936         3.12970         1.48278
   N       -7.63004         3.35049         1.37250
   C       -4.46249         3.13035         0.33812
   N       -3.97725         3.29836        -0.68864
   C       -5.17258         1.85045         3.84940
   C       -4.27692         0.96487         4.51920
   C       -4.65634         0.27109         5.63252
   C       -5.96487         0.44073         6.13813
   C       -6.85713         1.33975         5.48412
   C       -6.43974         2.04214         4.33087
   C       -8.15780         1.50353         6.00268
   C       -8.56195         0.80984         7.11058
   C       -7.68409        -0.07672         7.75236
   C       -6.41357        -0.25714         7.27687
   C       -2.97692         0.96119         3.82516
   O       -1.99676         0.30140         4.07135
   C       -3.09967         2.01874         2.77316
   C       -1.99431         2.52530         2.17838
   C       -1.87717         3.74872         1.46042
   S       -2.80162         5.18917         1.84392
   C       -1.02886         4.03036         0.41674
   C       -0.03222         3.28582        -0.37304
   O        0.37876         2.16176        -0.24780
   N        0.39321         4.19455        -1.33595
   C        1.35577         3.86146        -2.36493
   C        0.66237         3.53075        -3.68178
   C       -0.22768         5.43202        -1.25842
   O       -0.00078         6.35617        -2.00443
   C       -1.15146         5.33069        -0.11494
   C       -2.07219         6.12022         0.55152
   C       -2.49589         7.45622         0.35071
   C       -2.10512         8.20443        -0.71395
   C       -2.56291         9.52717        -0.92610
   N       -2.28657        10.24666        -2.06227
   C       -1.57173         9.77372        -3.22401
   C       -2.44194         8.86998        -4.09331
   C       -2.86473        11.53227        -2.02972
   O       -2.75216        12.34549        -2.91962
   C       -3.53572        11.57893        -0.74618
   C       -3.32969        10.34299        -0.09213
   C       -3.96919        10.42479         1.20018
   O       -4.08384         9.61831         2.10293
   N       -4.49788        11.73138         1.25697
   C       -5.30325        12.12200         2.39058
   C       -6.77936        12.26148         2.03183
   C       -4.25877        12.42424         0.09065
   C       -4.64655        13.73935        -0.28599
   C       -5.02431        14.76564         0.51132
   C       -5.40879        16.07007         0.05461
   C       -5.88465        16.39073        -1.21110
   F       -6.04714        15.43128        -2.13548
   C       -6.26621        17.68735        -1.58893
   F       -6.71034        17.82877        -2.84762
   C       -6.17908        18.79103        -0.74965
   C       -5.69003        18.50308         0.55371
   C       -5.33962        17.16912         0.95459
   N       -4.93525        17.11898         2.22182
   S       -4.98957        18.60191         2.84199
   N       -5.52937        19.37674         1.54412
   C       -6.49424        20.14564        -1.10544
   C       -7.31158        20.52951        -2.11141
   C       -7.57149        21.88195        -2.47633
   C       -6.68081        22.91125        -2.47862
   C       -6.98128        24.27353        -2.88818
   C       -8.20930        24.87507        -2.82178
   C       -8.45129        26.21355        -3.19401
   N       -8.70436        27.29218        -3.49423
   C       -9.37236        24.24782        -2.32624
   N      -10.34402        23.80360        -1.90628
   C       -5.73280        24.90239        -3.29232
   C       -4.66522        24.00107        -3.01539
   C       -5.19834        22.76616        -2.41017
   O       -4.55187        21.83098        -1.99364
   C       -3.36784        24.31328        -3.30319
   C       -3.07518        25.56200        -3.89637
   C       -4.13881        26.46745        -4.17899
   C       -5.47245        26.11857        -3.86616
   C       -3.83432        27.70725        -4.77712
   C       -2.54245        28.03856        -5.08297
   C       -1.49614        27.14638        -4.80483
   C       -1.75663        25.93536        -4.22291
   H       -3.96751        -0.40230         6.12046
   H       -7.12984         2.72414         3.85901
   H       -8.83090         2.18419         5.50249
   H       -9.56121         0.93957         7.49824
   H       -8.01971        -0.61588         8.62550
   H       -5.73368        -0.93842         7.76713
   H       -1.07678         1.95467         2.28881
   H        1.92351         3.00197        -2.00134
   H        2.02169         4.71907        -2.49282
   H       -0.01761         2.69206        -3.54987
   H        1.40358         3.26762        -4.43093
   H        0.09804         4.39129        -4.03377
   H       -3.18187         7.86505         1.08125
   H       -1.43041         7.78056        -1.44303
   H       -0.66692         9.24720        -2.91061
   H       -1.28919        10.66713        -3.78771
   H       -2.75001         7.98368        -3.54353
   H       -1.88159         8.55789        -4.96978
   H       -3.33005         9.40626        -4.41927
   H       -4.91479        13.04509         2.82815
   H       -5.17816        11.31728         3.12207
   H       -6.93081        13.03549         1.28360
   H       -7.34777        12.51939         2.92109
   H       -7.15688        11.32041         1.63926
   H       -4.55010        13.89946        -1.35173
   H       -4.98927        14.68395         1.58710
   H       -6.06804        20.88366        -0.44244
   H       -7.87547        19.79054        -2.66444
   H       -8.56179        22.07024        -2.87668
   H       -2.57422        23.61408        -3.08521
   H       -6.25931        26.81823        -4.10067
   H       -4.64336        28.39094        -4.98856
   H       -2.31972        28.99012        -5.54191
   H       -0.48289        27.42305        -5.05481
   H       -0.95503        25.24426        -4.00689
*
