# ORCA input file
# SCF done       -234.747218451478          0.000990121938
! CAM-B3LYP def2-SVP def2/J RIJCOSX Grid4 TightSCF
%maxcore 5000
%tddft
    Mode sTDDFT
    Ethresh 5.0
    maxcore 5000
end

%pal
  nprocs 6
  end
* xyz 0 1
   C        0.73152        -0.39700        -3.34182
   C        1.35717        -1.23132        -2.45957
   C        1.81200        -2.52885        -2.77932
   N        2.20030        -3.58822        -2.98656
   C        1.65677        -0.87629        -1.12641
   N        1.95645        -0.61232        -0.05098
   C        0.46783        -0.65324        -4.75128
   C       -0.13027         0.50461        -5.33611
   C       -0.47034         0.54973        -6.65887
   C       -0.22690        -0.57888        -7.47189
   C        0.36293        -1.74155        -6.89437
   C        0.70537        -1.76043        -5.52342
   C        0.59767        -2.86307        -7.71572
   C        0.26839        -2.83862        -9.04384
   C       -0.31076        -1.69349        -9.61142
   C       -0.55370        -0.58767        -8.84240
   C       -0.30070         1.53459        -4.30788
   O       -0.78169         2.64382        -4.40576
   C        0.22953         0.93704        -3.05254
   C        0.11487         1.60277        -1.88572
   C       -0.50047         2.91264        -1.82621
   C       -1.77901         3.10885        -1.37104
   N       -2.61306         2.06611        -0.94323
   O       -3.73149         2.33969        -0.55680
   O       -2.14751         0.93339        -0.98769
   C       -2.14535         4.50185        -1.50771
   C       -1.08556         5.15855        -2.02536
   C        0.01088         4.23338        -2.22166
   C        1.28644         4.49857        -2.65274
   C        2.32170         3.52898        -2.91003
   C        3.33848         4.13269        -3.56560
   C        3.02056         5.53267        -3.72203
   N        3.96981         6.45294        -4.21311
   O        4.96527         5.99283        -4.74022
   O        3.76851         7.64672        -4.05646
   C        1.79573         5.79615        -3.13542
   C        1.15764         7.06286        -2.98245
   C        1.03340         7.97317        -3.97888
   C        0.44159         9.25903        -3.90487
   N        0.29737        10.08099        -2.81642
   C        0.93914         9.96518        -1.52497
   C        2.45934        10.01025        -1.64188
   C       -0.38133        11.27729        -3.15404
   O       -0.60977        12.16687        -2.36531
   C       -0.68704        11.12855        -4.56098
   C       -0.15570         9.90525        -4.99442
   C       -0.48451         9.75140        -6.39820
   O       -0.24003         8.88116        -7.20037
   N       -1.21165        10.92486        -6.71687
   C       -1.70064        11.10678        -8.06331
   C       -3.12470        10.57888        -8.22494
   C       -1.35571        11.74846        -5.62894
   C       -2.02887        12.97939        -5.48112
   C       -2.88098        13.61543        -6.33631
   C       -3.54060        14.82697        -6.03088
   C       -4.53185        15.40781        -6.80316
   C       -5.00696        16.57950        -6.15833
   C       -4.20309        16.71805        -4.92807
   C       -3.34460        15.66850        -4.85766
   C       -4.29020        17.74670        -3.98204
   N       -4.33499        18.57824        -3.19150
   C       -6.05026        17.39212        -6.55034
   C       -6.57577        18.52289        -5.86971
   C       -7.67773        18.99951        -6.55466
   C       -7.86176        18.16321        -7.73585
   C       -6.89595        17.20930        -7.74756
   C       -6.74733        16.22765        -8.73380
   N       -6.64553        15.43225        -9.55642
   C       -8.49366        20.08327        -6.15654
   C       -9.63893        20.46395        -6.79144
   C      -10.43464        21.52883        -6.31631
   C      -11.62549        21.91255        -6.86851
   C      -12.49474        22.98105        -6.41071
   C      -12.23430        23.88293        -5.41070
   C      -13.12551        24.90280        -5.01443
   N      -13.80162        25.75164        -4.63993
   C      -11.05213        23.94366        -4.64333
   N      -10.12176        24.06451        -3.98089
   C      -13.70654        22.94771        -7.22222
   C      -13.57727        21.91421        -8.19383
   C      -12.27777        21.24515        -8.02978
   O      -11.84159        20.33376        -8.70215
   C      -14.56338        21.64545        -9.09924
   C      -15.74994        22.41124        -9.07320
   C      -15.88895        23.44585        -8.10310
   C      -14.84957        23.70194        -7.17956
   C      -17.07808        24.20275        -8.08348
   C      -18.08262        23.95105        -8.97803
   C      -17.94475        22.93204        -9.93246
   C      -16.80315        22.17858        -9.97934
   H       -0.91992         1.43709        -7.07917
   H        1.14804        -2.65499        -5.11444
   H        1.04384        -3.74215        -7.27467
   H        0.45278        -3.70215        -9.66486
   H       -0.56341        -1.69193       -10.66101
   H       -0.99954         0.29650        -9.27363
   H        0.40733         1.15399        -0.94401
   H       -3.11234         4.88945        -1.25085
   H       -1.05825         6.19706        -2.28416
   H        2.27319         2.49783        -2.62363
   H        4.25774         3.69696        -3.90805
   H        0.73582         7.25737        -2.00700
   H        1.31642         7.69047        -4.98452
   H        0.61010         9.05651        -1.01572
   H        0.58279        10.82383        -0.94742
   H        2.83372         9.21845        -2.28626
   H        2.90303         9.90154        -0.65635
   H        2.77182        10.96488        -2.05772
   H       -1.03262        10.52851        -8.70896
   H       -1.62408        12.16111        -8.33669
   H       -3.13868         9.50617        -8.04923
   H       -3.47568        10.76935        -9.23521
   H       -3.80641        11.05053        -7.52032
   H       -1.85504        13.42203        -4.50862
   H       -3.13857        13.18609        -7.29250
   H       -4.90600        15.02313        -7.73168
   H       -2.63166        15.49173        -4.07454
   H       -6.18570        18.92608        -4.95571
   H       -8.63166        18.29051        -8.47325
   H       -8.18006        20.61837        -5.26772
   H       -9.97826        19.93970        -7.67164
   H      -10.06777        22.05324        -5.44295
   H      -14.43921        20.85614        -9.82580
   H      -14.98884        24.49031        -6.45729
   H      -17.17958        24.98618        -7.34690
   H      -18.98968        24.53608        -8.95487
   H      -18.74764        22.74696       -10.63024
   H      -16.69140        21.39264       -10.71185
*
