# ORCA input file
# SCF done       -196.040022191276          0.000534625520
! CAM-B3LYP def2-SVP def2/J RIJCOSX Grid4 TightSCF
%maxcore 5000
%tddft
    Mode sTDDFT
    Ethresh 5.0
    maxcore 5000
end

%pal
  nprocs 6
  end
* xyz 0 1
   C        1.60000         2.78781        -4.13063
   C        1.52262         3.43939        -5.33353
   C        2.31239         3.11330        -6.45719
   N        2.92499         2.90544        -7.40535
   C        0.63050         4.48510        -5.65404
   N       -0.07479         5.32102        -6.00487
   C        2.44546         1.63408        -3.85438
   C        2.10780         1.12709        -2.56831
   C        2.72696         0.03280        -2.03574
   C        3.73713        -0.61562        -2.77996
   C        4.08642        -0.11118        -4.06633
   C        3.42561         1.02283        -4.59149
   C        5.09743        -0.76490        -4.79990
   C        5.73314        -1.86390        -4.28948
   C        5.38883        -2.35908        -3.02271
   C        4.41181        -1.74849        -2.28404
   C        1.04520         1.95144        -1.97240
   O        0.51064         1.75434        -0.90148
   C        0.80289         3.05564        -2.93956
   C        0.08889         4.20454        -2.75636
   C       -0.76243         4.61828        -1.70482
   S       -1.35915         6.26365        -1.77106
   C       -2.29556         6.05663        -0.33288
   C       -2.14009         4.75038         0.16317
   C       -1.28483         3.95720        -0.60781
   C       -2.75663         4.24657         1.32155
   N       -3.24168         3.80409         2.26292
   C       -3.06393         7.14037         0.15344
   C       -3.89848         7.08212         1.22744
   C       -4.65271         8.19265         1.67070
   N       -5.51537         8.14141         2.73981
   C       -5.74558         7.01280         3.61161
   C       -4.61388         6.83127         4.61924
   C       -6.15355         9.37286         2.96058
   O       -6.96328         9.56714         3.84344
   C       -5.62537        10.23924         1.92676
   C       -4.70879         9.48993         1.15416
   C       -4.17361        10.36145         0.12976
   O       -3.36156        10.17280        -0.75473
   N       -4.80319        11.59534         0.35894
   C       -4.56382        12.73256        -0.49764
   C       -5.68744        12.92872        -1.51206
   C       -5.67698        11.53814         1.42092
   C       -6.44373        12.63703         1.87073
   C       -7.33620        12.55032         2.89521
   C       -8.09199        13.66752         3.32134
   O       -7.92680        14.87525         2.73884
   C       -8.76293        15.75941         3.32277
   C       -9.50221        15.11279         4.31750
   C       -9.06822        13.76170         4.31870
   C       -9.53485        12.73522         5.15244
   N       -9.93587        11.91470         5.84410
   C      -10.47272        15.69674         5.14348
   N      -11.26416        16.18332         5.81440
   C       -8.78720        17.11276         2.90932
   C       -7.96640        17.58809         1.93454
   C       -7.97458        18.94067         1.52567
   C       -7.14540        19.46072         0.57309
   C       -7.09661        20.84099         0.12133
   C       -7.93559        21.85909         0.49314
   C       -7.83881        23.18076         0.00725
   N       -7.81716        24.27270        -0.34597
   C       -9.01869        21.75032         1.39082
   N       -9.91879        21.74660         2.10387
   C       -5.99758        20.95874        -0.83024
   C       -5.40165        19.67642        -1.00134
   C       -6.09612        18.69441        -0.15496
   O       -5.85033        17.50748        -0.07475
   C       -4.34282        19.47813        -1.84072
   C       -3.81805        20.57464        -2.55973
   C       -4.40571        21.86190        -2.39147
   C       -5.50252        22.03611        -1.51689
   C       -3.87312        22.95085        -3.11112
   C       -2.81153        22.77829        -3.95714
   C       -2.23401        21.51039        -4.12236
   C       -2.72643        20.43193        -3.43867
   H        2.44866        -0.33222        -1.05823
   H        3.71822         1.38257        -5.56494
   H        5.35819        -0.38094        -5.77520
   H        6.50533        -2.35824        -4.85956
   H        5.90154        -3.22665        -2.63520
   H        4.14212        -2.12517        -1.30827
   H        0.18623         4.95516        -3.53244
   H       -1.04934         2.93534        -0.37047
   H       -2.96851         8.07161        -0.39120
   H       -4.01238         6.15679         1.76990
   H       -5.87900         6.10725         3.01405
   H       -6.67762         7.22838         4.14124
   H       -3.66884         6.63702         4.11732
   H       -4.83796         5.99059         5.26894
   H       -4.50951         7.72572         5.22871
   H       -3.62770        12.52300        -1.02254
   H       -4.43270        13.63042         0.11229
   H       -5.76809        12.05482        -2.15392
   H       -5.47486        13.79712        -2.12893
   H       -6.64181        13.08190        -1.01331
   H       -6.31142        13.58690         1.37181
   H       -7.50266        11.61886         3.41920
   H       -9.49268        17.75762         3.41563
   H       -7.27229        16.91573         1.45171
   H       -8.68401        19.59013         2.02182
   H       -3.90925        18.49537        -1.95316
   H       -5.92178        23.02380        -1.41137
   H       -4.32141        23.92482        -2.98084
   H       -2.41075        23.61840        -4.50403
   H       -1.39692        21.39259        -4.79399
   H       -2.28549        19.45355        -3.56192
*
