# ORCA input file
# SCF done       -177.098902690018          0.000634452286
! CAM-B3LYP def2-SVP def2/J RIJCOSX Grid4 TightSCF
%maxcore 5000
%tddft
    Mode sTDDFT
    Ethresh 5.0
    maxcore 5000
end

%pal
  nprocs 6
  end
* xyz 0 1
   C        2.67192         7.69422        -8.47007
   N        2.43452         8.74752        -7.64311
   C        3.06806        10.03981        -7.71855
   C        2.45950        10.89821        -8.82465
   C        1.41261         8.45261        -6.71396
   O        1.02968         9.24255        -5.87026
   C        1.03304         7.09848        -7.03009
   C        1.84299         6.66347        -8.12785
   C        1.46347         5.30097        -8.44955
   O        1.85570         4.52248        -9.28929
   N        0.44119         5.00533        -7.52665
   C       -0.17411         3.70020        -7.48468
   C        0.39806         2.83874        -6.36209
   C        0.18103         6.05923        -6.68042
   C       -0.81707         6.01459        -5.67123
   C       -1.05490         7.05809        -4.83719
   C       -2.05320         7.04505        -3.83057
   S       -2.25000         8.47087        -2.82632
   C       -2.97170         6.08601        -3.44533
   C       -3.36485         4.71793        -3.81861
   O       -2.93043         3.97900        -4.67327
   N       -4.40707         4.39295        -2.96338
   C       -5.06419         3.10383        -2.97292
   C       -4.34336         2.10937        -2.06935
   C       -4.73261         5.40321        -2.06028
   O       -5.60395         5.33104        -1.22949
   C       -3.80495         6.49377        -2.37952
   C       -3.56383         7.76487        -1.90608
   C       -4.23637         8.43414        -0.85329
   C       -3.91608         9.67443        -0.42201
   C       -4.58976        10.35493         0.62787
   O       -5.65334         9.81490         1.26212
   C       -6.06713        10.69180         2.18534
   C       -5.29312        11.81236         2.18911
   C       -4.33298        11.60833         1.17016
   S       -2.99731        12.64187         0.70322
   C       -3.75977        14.19557         0.58039
   C       -5.08901        14.52299         0.59821
   C       -5.20753        15.92984         0.43261
   C       -3.83489        16.44903         0.30308
   C       -2.97635        15.39592         0.39992
   C       -3.45491        17.78278         0.13202
   N       -3.11485        18.87131        -0.01264
   C       -6.37070        16.67131         0.39766
   C       -6.51027        18.05816         0.14692
   C       -7.84954        18.40029         0.19138
   C       -8.60114        17.19301         0.49477
   C       -7.73533        16.15275         0.61791
   C       -8.08899        14.84063         0.94375
   N       -8.40282        13.77191         1.22944
   C       -8.45670        19.66307        -0.00773
   C       -7.78147        20.80890        -0.29418
   C       -8.38063        22.06995        -0.49431
   S      -10.12687        22.29803        -0.37572
   C       -7.73008        23.25892        -0.79880
   C       -8.61056        24.32511        -0.93338
   C       -8.55066        25.75024        -1.23197
   S       -7.21927        26.64317        -1.54551
   C       -9.95406        23.95706        -0.73022
   C      -10.76333        25.11025        -0.88941
   S      -12.40819        25.55851        -0.82369
   C       -9.93105        26.20112        -1.19312
   C      -10.63790        27.39247        -1.37088
   C      -11.99633        27.22352        -1.20537
   C      -13.05915        28.18410        -1.30126
   C      -12.90296        29.47667        -1.58444
   H        3.42069         7.75241        -9.23833
   H        4.14017         9.90293        -7.88704
   H        2.91399        10.52019        -6.74856
   H        2.57181        10.41327        -9.79200
   H        2.95461        11.86461        -8.85792
   H        1.40055        11.05489        -8.63438
   H        0.04034         3.23596        -8.45141
   H       -1.25588         3.80505        -7.37052
   H        1.47245         2.72597        -6.48727
   H       -0.06246         1.85539        -6.38678
   H        0.20224         3.28841        -5.39173
   H       -1.40544         5.11367        -5.58015
   H       -0.46863         7.96410        -4.92060
   H       -5.07108         2.74480        -4.00494
   H       -6.08832         3.26011        -2.62594
   H       -3.32179         1.96210        -2.41235
   H       -4.85993         1.15403        -2.08753
   H       -4.32427         2.47789        -1.04624
   H       -5.04476         7.88413        -0.39059
   H       -3.09913        10.21729        -0.87919
   H       -6.91711        10.41960         2.77873
   H       -5.38898        12.66590         2.82695
   H       -5.91391        13.84667         0.68975
   H       -1.90395        15.42581         0.35662
   H       -5.69171        18.71898        -0.05617
   H       -9.66968        17.15055         0.60451
   H       -9.53662        19.70182         0.07591
   H       -6.70400        20.78613        -0.38310
   H       -6.66351        23.32704        -0.91338
   H      -10.17886        28.33394        -1.60839
   H      -14.05075        27.78855        -1.12271
   H      -11.93621        29.91171        -1.76834
   H      -13.74747        30.13983        -1.63977
*
