# ORCA input file
# SCF done       -121.794536148053          0.000623416981
! CAM-B3LYP def2-SVP def2/J RIJCOSX Grid4 TightSCF
%maxcore 5000
%tddft
    Mode sTDDFT
    Ethresh 5.0
    maxcore 5000
end

%pal
  nprocs 6
  end
* xyz 0 1
   C       -1.91954        -0.35847        -2.47409
   N       -0.79650        -0.28181        -3.25187
   C        0.27924        -0.14965        -2.42317
   C        1.66657        -0.02147        -2.38934
   C        2.01350         0.06071        -1.03692
   N        0.86509        -0.01438        -0.26992
   C       -0.20147        -0.14448        -1.09639
   C       -1.60014        -0.27806        -1.14005
   C        3.28388         0.19220        -0.42367
   C        4.46931         0.25286        -1.07590
   C        5.70574         0.37192        -0.39175
   S        7.24523         0.40851        -1.25595
   C        7.98581         0.54104         0.34229
   N        7.10263         0.55038         1.29722
   N        5.86191         0.45800         0.89955
   C        9.39382         0.61980         0.50833
   C        9.98215         0.72940         1.72045
   C       11.38377         0.79874         1.92661
   S       12.50650         0.71742         0.59821
   C       13.87069         0.83798         1.66959
   C       13.45422         0.93150         2.98780
   C       12.05799         0.91992         3.13126
   C       11.37298         1.00797         4.46045
   C       12.33207         1.52598         5.54245
   C       12.57555         2.93884         5.35867
   N       12.78016         4.05304         5.20918
   C       13.67658         0.76759         5.47812
   C       13.43722        -0.65143         5.61254
   N       13.24974        -1.77365         5.71568
   C       14.39292         1.05634         4.14995
   C       15.20685         0.83600         1.17906
   C       15.53060         0.72226        -0.12514
   C       16.85730         0.70062        -0.67359
   C       18.04173         0.85867         0.06180
   N       19.23784         0.81393        -0.47981
   C       19.29490         0.60887        -1.80401
   N       18.23995         0.45802        -2.61518
   C       17.05687         0.50606        -2.05128
   N       20.52295         0.55156        -2.35285
   C       20.85549         0.33024        -3.67665
   C       20.21705         0.07610        -4.84058
   S       21.37903        -0.13615        -6.10893
   C       22.72615         0.12144        -5.03603
   C       22.28055         0.36076        -3.78282
   N       22.82372         0.70455        -2.55477
   C       21.74571         0.70335        -1.57696
   H       -2.88734        -0.46709        -2.92382
   H       -0.78023        -0.31837        -4.25588
   H        2.34748         0.01098        -3.21542
   H        0.85274         0.02024         0.73484
   H       -2.28854        -0.31253        -0.32005
   H        3.30541         0.24266         0.65708
   H        4.51540         0.20482        -2.15277
   H        9.99290         0.58477        -0.39093
   H        9.34767         0.75944         2.59448
   H       11.01589         0.01421         4.75180
   H       10.50462         1.66811         4.39429
   H       11.87576         1.38927         6.53099
   H       14.31791         1.07911         6.31257
   H       15.23162         0.36454         4.03371
   H       14.79837         2.07370         4.18208
   H       15.98179         0.93228         1.92605
   H       14.72869         0.62612        -0.84777
   H       18.03037         1.03151         1.13012
   H       16.21300         0.38103        -2.71932
   H       19.16970        -0.00289        -5.03703
   H       23.72364         0.07752        -5.41921
   H       23.69715         0.28745        -2.27400
   H       21.72131         1.65388        -1.02617
   H       21.82786        -0.11316        -0.84178
*
