# ORCA input file
# SCF done       -156.706531807518          0.000397865985
! CAM-B3LYP def2-SVP def2/J RIJCOSX Grid4 TightSCF
%maxcore 5000
%tddft
    Mode sTDDFT
    Ethresh 5.0
    maxcore 5000
end

%pal
  nprocs 6
  end
* xyz 0 1
   C        5.43410        -4.25102        -1.38048
   C        4.65936        -3.32837        -0.68212
   C        3.22983        -3.48412        -0.55253
   N        2.51504        -2.58223         0.14441
   C        3.13420        -1.56735         0.68725
   C        4.56061        -1.40831         0.55387
   N        5.27643        -2.27052        -0.11213
   C        5.19570        -0.29233         1.15989
   N        5.66964         0.62067         1.66227
   C        2.38575        -0.60911         1.41714
   N        1.81318         0.18491         2.01121
   C        2.56146        -4.59559        -1.10776
   C        3.35150        -5.50807        -1.82393
   C        4.78416        -5.33071        -1.96028
   N        5.33053        -6.30715        -2.69976
   S        4.17802        -7.30392        -3.17406
   N        2.92360        -6.58855        -2.48617
   C        1.14851        -4.78878        -0.95435
   C        0.12613        -3.73109        -0.97021
   N       -1.09172        -4.17009        -0.87132
   C       -0.99020        -5.52360        -0.75517
   C        0.42406        -5.94631        -0.81923
   C        0.51647        -7.36907        -0.59555
   S        1.89820        -8.23665        -0.38162
   C       -0.84829        -7.80837        -0.47108
   C       -1.75069        -6.64332        -0.56863
   N       -3.05347        -7.02114        -0.41344
   C       -3.02264        -8.30099        -0.21628
   C       -1.67291        -8.88908        -0.22430
   C       -1.41077       -10.26059        -0.00992
   C       -0.19177       -10.92642        -0.03623
   C       -0.29634       -12.27890         0.23947
   C       -1.59930       -12.69473         0.48302
   S       -2.70889       -11.35971         0.35834
   C       -2.06735       -13.98719         0.80886
   C       -3.48199       -14.30724         1.06337
   N       -3.70842       -15.54739         1.36052
   C       -2.48747       -16.15829         1.33615
   C       -1.42231       -15.19490         0.99231
   C       -0.15667       -15.87827         0.94439
   S        1.29531       -15.31169         0.41681
   C       -0.45768       -17.23526         1.33270
   C       -1.91550       -17.38501         1.52199
   N       -2.23114       -18.67791         1.81265
   C       -1.10805       -19.32865         1.79618
   C        0.06789       -18.49039         1.51230
   C        1.43218       -18.93257         1.50193
   C        1.80308       -20.20983         1.02987
   C        3.18669       -20.62050         0.98807
   N        3.51451       -21.83755         0.50227
   C        2.56468       -22.62178         0.07551
   C        1.18396       -22.21025         0.11481
   N        0.84304       -21.03631         0.57712
   C        0.17454       -23.09099        -0.35042
   N       -0.61407       -23.82956        -0.72987
   C        2.89416       -23.90398        -0.43769
   N        3.11784       -24.94511        -0.85779
   C        4.20974       -19.78786         1.43435
   C        3.85541       -18.54410         1.93599
   C        2.47133       -18.11298         1.97009
   N        2.34643       -16.90305         2.52641
   S        3.79833       -16.36703         2.93167
   N        4.67203       -17.61278         2.45006
   H        6.49945        -4.11662        -1.46105
   H        0.33056        -2.68157        -1.07805
   H       -3.93001        -8.86074        -0.06591
   H        0.73386       -10.42058        -0.24568
   H        0.53673       -12.95869         0.26388
   H       -4.28604       -13.59271         1.01647
   H       -1.07502       -20.38316         2.00035
   H        5.23509       -20.11367         1.38971
*
