# ORCA input file
# SCF done       -206.357469890764          0.000753823865
! CAM-B3LYP def2-SVP def2/J RIJCOSX Grid4 TightSCF
%maxcore 5000
%tddft
    Mode sTDDFT
    Ethresh 5.0
    maxcore 5000
end

%pal
  nprocs 6
  end
* xyz 0 1
   C        8.69563        -8.34289         3.33790
   C        8.36298        -9.72389         2.90585
   O        7.43848       -10.04466         2.18806
   C        9.41053       -10.58152         3.49512
   C       10.23934        -9.80438         4.30279
   C        9.73232        -8.43209         4.33154
   C       10.04020        -7.49538         5.29021
   C        9.32592        -6.29809         5.47965
   N        8.74977        -5.33268         5.71705
   C       11.04562        -7.65128         6.26290
   N       11.86787        -7.70172         7.06370
   C       11.34047       -10.37566         4.95233
   C       11.58256       -11.71466         4.78473
   C       10.75049       -12.53326         3.99120
   C        9.62952       -11.96105         3.32189
   C        8.79933       -12.78289         2.53195
   C        9.06783       -14.11810         2.41209
   C       10.17177       -14.68684         3.06826
   C       10.99516       -13.91351         3.83893
   C        8.04604        -7.28780         2.75323
   C        8.37948        -5.92588         2.72882
   S        7.10366        -4.76563         2.51129
   C        8.14339        -3.41952         2.76444
   C        9.47845        -3.84139         2.88009
   C        9.61631        -5.26612         2.85688
   C       10.89155        -5.85829         2.86819
   C       12.00612        -5.06985         2.95537
   C       11.89547        -3.67282         2.99107
   C       10.66435        -3.08074         2.92876
   F       10.61734        -1.73181         2.86122
   C        7.56989        -2.10901         2.90924
   C        8.07057        -1.22116         3.83389
   C        7.46256         0.03658         3.99868
   C        7.77952         1.09565         4.83862
   C        8.98092         1.17233         5.72064
   C        9.96100         2.24405         5.21393
   N       10.18991         2.07934         3.78554
   C        8.63738         1.35538         7.21699
   N        8.35907         2.73701         7.58260
   C        6.80569         2.12735         4.58663
   C        6.64061         3.34321         5.14009
   C        5.61412         4.28895         4.63028
   C        4.66072         3.70418         3.62841
   C        4.82090         2.47110         3.11357
   C        5.88927         1.64766         3.54329
   C        6.29068         0.37236         3.20074
   C        5.78264        -0.57489         2.28114
   C        6.40087        -1.77386         2.14732
   C        6.28980         5.42714         3.90201
   C        7.44603         5.28275         3.23807
   C        8.08685         6.30890         2.49012
   S        7.48520         7.92106         2.43041
   C        8.77344         8.47771         1.40128
   C        9.65294         7.41547         1.12521
   C        9.25835         6.18213         1.72731
   C       10.01440         5.01037         1.52074
   C       11.12856         5.06425         0.73160
   C       11.53098         6.26608         0.12398
   C       10.80689         7.40868         0.31776
   F       11.21425         8.54695        -0.27613
   C        8.91239         9.82833         1.03438
   C        7.97333        10.82052         1.04531
   C        8.40344        12.24110         1.12695
   O        9.52986        12.66017         0.96818
   C        7.18663        12.99184         1.49791
   C        6.09344        12.12618         1.50713
   C        6.53144        10.79916         1.08103
   C        5.72060         9.83258         0.54053
   C        6.21762         8.70276        -0.14040
   N        6.58264         7.79420        -0.74027
   C        4.31429         9.89193         0.52114
   N        3.16620         9.86877         0.49922
   C        4.81813        12.58861         1.85456
   C        4.66445        13.91059         2.18221
   C        5.74743        14.81666         2.16997
   C        7.05034        14.35567         1.82059
   C        8.12817        15.26481         1.81008
   C        7.92292        16.57816         2.13088
   C        6.64148        17.03773         2.47564
   C        5.57799        16.17794         2.49564
   H       11.99463        -9.77526         5.56333
   H       12.43260       -12.16951         5.27271
   H        7.95550       -12.33395         2.03230
   H        8.43004       -14.74775         1.80968
   H       10.36515       -15.74382         2.95907
   H       11.84450       -14.34875         4.34570
   H        7.14539        -7.56543         2.21228
   H       10.98477        -6.92738         2.76586
   H       12.98767        -5.51742         2.97092
   H       12.77743        -3.05347         3.02796
   H        8.88935        -1.51225         4.47291
   H        9.49232         0.20649         5.64242
   H       10.88652         2.17608         5.81295
   H        9.53325         3.23990         5.35502
   H       10.39271         1.10822         3.56813
   H       10.99218         2.63109         3.49889
   H        9.46613         0.93224         7.80723
   H        7.74282         0.76483         7.42973
   H        9.22371         3.26340         7.65142
   H        7.90876         2.76876         8.49021
   H        7.27069         3.67561         5.95321
   H        5.05368         4.70890         5.47528
   H        3.85983         4.34971         3.30257
   H        4.12786         2.09033         2.37727
   H        4.90726        -0.33551         1.69598
   H        6.02988        -2.51017         1.44878
   H        5.75629         6.36755         3.87546
   H        7.94889         4.32543         3.24826
   H        9.70599         4.08254         1.97623
   H       11.71299         4.17426         0.55754
   H       12.40766         6.29807        -0.50314
   H        9.91731        10.15846         0.79122
   H        3.97487        11.91719         1.87618
   H        3.68883        14.28380         2.45892
   H        9.10759        14.89978         1.54387
   H        8.74847        17.27418         2.12137
   H        6.50234        18.07900         2.72646
   H        4.59074        16.52935         2.75950
*
