# ORCA input file
# SCF done       -178.800921335021          0.000867430206
! CAM-B3LYP def2-SVP def2/J RIJCOSX Grid4 TightSCF
%maxcore 5000
%tddft
    Mode sTDDFT
    Ethresh 5.0
    maxcore 5000
end

%pal
  nprocs 6
  end
* xyz 0 1
   C       -4.34519         2.55868        -0.92364
   C       -4.74753         1.24012        -0.84969
   C       -5.31436         0.66120         0.41099
   C       -4.60590         0.44892        -1.98249
   C       -4.07570         0.94179        -3.16862
   C       -3.99755        -0.00225        -4.34021
   C       -5.23598         0.12899        -5.22917
   C       -3.67444         2.27573        -3.24240
   C       -3.13089         2.87952        -4.50423
   C       -3.80791         3.09143        -2.09940
   C       -3.35956         4.46460        -2.13094
   C       -3.82321         5.45949        -1.34263
   C       -3.33947         6.79553        -1.36128
   C       -3.92776         7.84720        -0.52360
   N       -3.35661         9.01031        -0.62346
   C       -2.35014         8.83548        -1.52887
   C       -2.32168         7.45113        -2.03113
   C       -1.22464         7.30434        -2.95340
   S       -0.73427         5.94497        -3.74893
   C       -0.59940         8.60590        -3.00049
   C       -1.31401         9.52331        -2.10104
   N       -0.70601        10.74448        -2.06809
   C        0.33730        10.62765        -2.83722
   C        0.48757         9.31413        -3.46662
   C        1.56115         8.95267        -4.35279
   C        2.80778         9.52574        -4.19102
   C        3.88105         9.11792        -5.00125
   C        5.22779         9.47903        -5.01121
   C        5.93970        10.50299        -4.19384
   C        5.34141        11.89736        -4.44528
   N        5.22289        12.11635        -5.87561
   C        5.94731        10.14340        -2.69873
   N        6.72828         8.93288        -2.51108
   C        5.85764         8.70117        -6.04740
   C        7.14981         8.59832        -6.41341
   C        7.56214         7.76526        -7.57258
   C        6.45756         6.97645        -8.20194
   C        5.17984         7.03961        -7.77819
   C        4.82978         7.87999        -6.69717
   C        3.63782         8.12359        -6.03789
   C        2.34231         7.58981        -6.20886
   C        1.33970         7.98796        -5.38349
   C        8.11853         8.71867        -8.60383
   C        9.23407         8.50289        -9.30563
   C        9.78137         9.44826       -10.23288
   C       10.71947         9.10483       -11.29830
   N       11.11460        10.11503       -12.02093
   C       10.50328        11.20502       -11.47772
   C        9.63473        10.81298       -10.35116
   C        9.05687        11.99050        -9.75163
   S        8.04878        12.08081        -8.45192
   C        9.58281        13.08884       -10.52344
   C       10.45705        12.56745       -11.59790
   N       10.94660        13.58616       -12.35456
   C       10.43542        14.67226       -11.84222
   C        9.57495        14.45023       -10.67869
   C        8.93467        15.52209        -9.93427
   C        9.17357        15.70105        -8.56951
   C       10.07741        14.79298        -7.79918
   C        8.57314        16.77990        -7.94135
   C        7.74051        17.66340        -8.61024
   C        7.18250        18.82918        -7.84167
   C        8.11117        20.04046        -7.95424
   C        7.49423        17.48303        -9.97700
   C        6.53960        18.39006       -10.69752
   C        8.11640        16.42351       -10.63846
   C        7.91493        16.15525       -12.07292
   C        8.14039        17.02546       -13.04550
   H       -4.41434         3.18279        -0.04515
   H       -5.32581         1.39961         1.20862
   H       -4.72224        -0.19310         0.73629
   H       -6.33362         0.31470         0.24359
   H       -4.91308        -0.58697        -1.93721
   H       -3.94120        -1.02631        -3.96523
   H       -3.09682         0.17822        -4.92789
   H       -6.13311        -0.09625        -4.65663
   H       -5.17754        -0.56191        -6.06740
   H       -5.32842         1.14011        -5.61816
   H       -3.18311         2.19347        -5.34142
   H       -2.08856         3.16867        -4.36793
   H       -3.69141         3.77546        -4.76668
   H       -2.58839         4.70878        -2.84636
   H       -4.63407         5.27594        -0.64871
   H       -4.77088         7.70459         0.13137
   H        0.98536        11.47076        -3.00426
   H        2.96442        10.24953        -3.40607
   H        6.98484        10.52664        -4.51651
   H        5.96842        12.64552        -3.92887
   H        4.33525        11.95635        -4.02244
   H        6.12825        12.03901        -6.32813
   H        4.86568        13.04588        -6.06535
   H        4.91283        10.05666        -2.33185
   H        6.43799        10.94588        -2.14001
   H        6.28658         8.15858        -2.99737
   H        6.78533         8.69336        -1.52764
   H        7.93425         9.15402        -5.91948
   H        8.36822         7.08259        -7.27038
   H        6.74104         6.35560        -9.03827
   H        4.41190         6.44843        -8.25574
   H        2.16053         6.86619        -6.98937
   H        0.34497         7.58952        -5.49988
   H        7.53792         9.61524        -8.75822
   H        9.78403         7.57525        -9.19779
   H       11.06692         8.10850       -11.51282
   H       10.67422        15.63818       -12.25088
   H       10.92469        14.46851        -8.40055
   H        9.52769        13.90148        -7.49049
   H       10.44714        15.28880        -6.90488
   H        8.76248        16.93783        -6.88850
   H        7.08989        18.55348        -6.78898
   H        6.19097        19.10093        -8.20363
   H        9.09700        19.79638        -7.56458
   H        7.71156        20.87881        -7.38834
   H        8.22279        20.34594        -8.99157
   H        5.61410        18.49140       -10.13279
   H        6.29656        17.99859       -11.68065
   H        6.96592        19.38490       -10.82006
   H        7.59136        15.14889       -12.31399
   H        8.49612        18.02242       -12.84292
   H        8.00026        16.76739       -14.08149
*
