# ORCA input file
# SCF done       -211.869754950124          0.000759139323
! CAM-B3LYP def2-SVP def2/J RIJCOSX Grid4 TightSCF
%maxcore 5000
%tddft
    Mode sTDDFT
    Ethresh 5.0
    maxcore 5000
end

%pal
  nprocs 6
  end
* xyz 0 1
   C      -10.89945         3.99264        -9.35615
   C      -12.26442         3.87271        -9.29801
   C      -13.09993         3.77097       -10.42917
   N      -13.83715         3.69742       -11.30640
   C      -13.02248         3.82409        -8.11034
   N      -13.70467         3.77336        -7.18733
   C      -10.09205         3.95836       -10.56829
   C       -8.72320         4.02245       -10.20629
   C       -7.71037         3.98985       -11.13365
   C       -8.06289         3.88351       -12.48246
   C       -9.43216         3.82358       -12.83461
   C      -10.45759         3.86041       -11.89694
   S       -9.63353         3.69585       -14.55359
   C       -7.91902         3.71943       -14.78128
   C       -7.22141         3.81967       -13.62884
   C       -8.60615         4.10931        -8.74267
   O       -7.58180         4.25228        -8.10226
   C       -9.99627         4.08772        -8.22856
   C      -10.34675         4.27903        -6.92134
   C       -9.48718         4.20406        -5.80501
   S       -9.80679         5.27390        -4.46621
   C       -8.38622         4.80009        -3.62611
   C       -7.73773         3.75697        -4.29418
   C       -8.36572         3.41013        -5.53324
   C       -7.88643         2.28224        -6.24958
   C       -8.56396         1.73868        -7.36146
   N       -9.09147         1.22712        -8.24273
   C       -6.76713         1.60734        -5.79548
   C       -6.15189         1.95242        -4.59298
   C       -6.64832         2.98348        -3.81568
   C       -6.12740         3.13856        -2.51431
   N       -5.69631         3.14860        -1.45018
   C       -7.96786         5.48200        -2.42384
   C       -6.66673         5.90798        -2.29130
   C       -6.26304         6.56734        -1.11271
   C       -5.04977         7.11666        -0.71945
   C       -3.75065         7.28936        -1.43574
   C       -2.77916         6.12716        -1.12379
   N       -3.21546         4.90651        -1.76870
   C       -3.87482         7.46045        -2.95647
   N       -4.99880         8.31584        -3.29809
   C       -5.22482         7.57103         0.64325
   C       -4.35293         8.10630         1.51747
   C       -4.75886         8.46944         2.90429
   C       -6.19271         8.18759         3.23088
   C       -7.05424         7.65963         2.34005
   C       -6.61621         7.31697         1.04076
   C       -7.23921         6.72301        -0.03788
   C       -8.57783         6.31120        -0.22822
   C       -8.93636         5.73414        -1.40124
   C       -4.52237         9.93895         3.12005
   C       -3.76207        10.42639         4.10911
   C       -3.53710        11.81393         4.35059
   S       -4.23659        13.02041         3.33899
   C       -3.41618        14.31958         4.14586
   C       -2.69873        13.83190         5.24464
   C       -2.73852        12.40148         5.34231
   C       -1.99077        11.76352         6.36642
   C       -1.94841        10.36325         6.54273
   N       -1.86917         9.23803         6.75407
   C       -1.26555        12.52302         7.26791
   C       -1.31287        13.91486         7.23313
   C       -2.03651        14.57659         6.25703
   C       -2.16997        15.97466         6.39008
   N       -2.28051        17.09709         6.60265
   C       -3.52959        15.61286         3.58132
   C       -2.63352        16.63525         3.54729
   C       -1.23418        16.73648         3.89966
   C       -0.31046        15.72084         3.88982
   C        1.04564        15.88150         4.23772
   N        2.15155        15.93514         4.54108
   C       -0.58151        14.41232         3.45106
   N       -0.73461        13.34034         3.06645
   C       -0.93412        18.15163         4.06819
   C       -2.04439        18.91249         3.61771
   C       -3.11797        18.00088         3.19073
   O       -4.18540        18.27532         2.69334
   C       -2.04888        20.28607         3.63233
   C       -0.91261        20.93796         4.12173
   C        0.18439        20.16837         4.57921
   C        0.19437        18.77900         4.55729
   S        1.46924        21.18370         5.15091
   C        0.55034        22.60014         4.77641
   C       -0.66479        22.33357         4.24930
   H       -6.67714         4.03656       -10.82607
   H      -11.48549         3.81228       -12.21557
   H       -7.53401         3.65563       -15.78049
   H       -6.14804         3.84815       -13.57538
   H      -11.36130         4.58659        -6.69862
   H       -6.39714         0.76410        -6.35942
   H       -5.31331         1.37436        -4.23522
   H       -5.96620         5.76577        -3.09575
   H       -3.28984         8.19975        -1.03137
   H       -2.68660         6.04038        -0.02732
   H       -1.79409         6.38242        -1.52788
   H       -4.10101         4.59360        -1.37924
   H       -2.53858         4.16737        -1.61806
   H       -4.02767         6.48170        -3.41341
   H       -2.90737         7.84437        -3.32476
   H       -4.86927         9.24225        -2.90424
   H       -5.07103         8.41433        -4.30452
   H       -3.32264         8.30911         1.25807
   H       -4.11613         7.91880         3.60643
   H       -6.50426         8.44730         4.23079
   H       -8.08139         7.46988         2.61562
   H       -9.30021         6.46373         0.55953
   H       -9.95367         5.41583        -1.57729
   H       -5.03925        10.59960         2.43726
   H       -3.26207         9.74293         4.77934
   H       -0.68657        12.02736         8.03230
   H       -0.79669        14.48799         7.98853
   H       -4.47251        15.82552         3.08421
   H       -2.90471        20.84089         3.28050
   H        1.04740        18.23388         4.92630
   H        0.98369        23.56033         4.97875
   H       -1.37285        23.08779         3.95723
*
