# ORCA input file
# SCF done       -200.717771690094          0.000907542802
! CAM-B3LYP def2-SVP def2/J RIJCOSX Grid4 TightSCF
%maxcore 5000
%tddft
    Mode sTDDFT
    Ethresh 5.0
    maxcore 5000
end

%pal
  nprocs 6
  end
* xyz 0 1
   C       15.18446        -4.56011        -1.40222
   C       15.54196        -5.85656        -1.15335
   F       16.61445        -6.11076        -0.38557
   C       14.82754        -6.94654        -1.67106
   C       13.73380        -6.70836        -2.45528
   C       13.32065        -5.39089        -2.74477
   C       14.06024        -4.29536        -2.20767
   C       13.66696        -2.96500        -2.48510
   C       12.57093        -2.74048        -3.27273
   C       11.82924        -3.84040        -3.79950
   C       12.18965        -5.13496        -3.54968
   C       10.68904        -3.33571        -4.57872
   O        9.89094        -3.94490        -5.24624
   C       10.68240        -1.85425        -4.32251
   C       11.96085        -1.49845        -3.74133
   C       12.57577        -0.28275        -3.83824
   C       12.06345         0.79013        -4.60486
   N       11.78927         1.63336        -5.33445
   C       13.86251        -0.02077        -3.32137
   N       14.90308         0.22883        -2.90850
   C        9.51626        -1.17687        -4.47228
   C        9.18603         0.09907        -3.94338
   N       10.04978         0.83343        -3.25839
   C        9.43435         2.00419        -3.00697
   C        8.07969         2.02120        -3.58413
   C        7.41714         3.31665        -3.32382
   O        6.31057         3.67399        -3.64477
   C        8.45520         4.05278        -2.57080
   C        9.66336         3.20786        -2.39464
   N       10.60829         3.86739        -1.68048
   C       10.08110         5.03386        -1.41119
   C        8.73365         5.21377        -1.93151
   C        7.88362         0.78763        -4.13558
   C        6.69163         0.27127        -4.74247
   C        6.29413        -1.00914        -4.62585
   C        5.10981        -1.58441        -5.19961
   C        4.19856        -0.97625        -6.05306
   C        4.15208         0.33071        -6.53863
   N        4.02741         1.38744        -6.97143
   S        2.90825        -2.03673        -6.51433
   C        3.55427        -3.32620        -5.55382
   C        4.73593        -2.93449        -4.93891
   C        5.48611        -3.76201        -4.07980
   N        6.16105        -4.33865        -3.35501
   C        2.94725        -4.60579        -5.38849
   N        3.67711        -5.60761        -4.93608
   C        2.82706        -6.64369        -4.77045
   C        1.45129        -6.25590        -5.11671
   C        0.52218        -7.38027        -4.90019
   O       -0.67596        -7.40685        -5.06299
   C        1.42377        -8.44960        -4.43112
   C        2.82206        -7.95318        -4.36615
   N        3.65419        -8.93162        -3.93291
   C        2.88712        -9.97095        -3.73032
   C        1.48011        -9.73953        -4.02174
   C        1.51213        -4.95705        -5.54264
   C        0.48166        -4.04300        -5.90080
   C       -0.82763        -4.19928        -5.60665
   C       -1.78326        -3.16262        -5.84085
   C       -1.55186        -1.82670        -5.80167
   C       -2.50394        -0.88264        -6.46812
   O       -3.64618        -1.11464        -6.78016
   C       -1.71172         0.33451        -6.72013
   C       -2.04445         1.44286        -7.44583
   C       -1.09431         2.47637        -7.60154
   C        0.19596         2.34012        -7.00750
   C        1.15183         3.35791        -7.19235
   C        0.81388         4.46312        -7.92403
   C       -0.45367         4.62400        -8.50334
   C       -1.38819         3.63943        -8.34281
   F        1.71408         5.44129        -8.10567
   C        0.50497         1.19377        -6.24056
   C       -0.43551         0.20914        -6.09525
   C       -0.39853        -1.05318        -5.36858
   C        0.44508        -1.34310        -4.32992
   C        0.34280        -2.49171        -3.51655
   N        0.31725        -3.39250        -2.80623
   C        1.54768        -0.54925        -3.95573
   N        2.51191        -0.00443        -3.65221
   H       15.75927        -3.74640        -0.98851
   H       15.15634        -7.94704        -1.43892
   H       13.16731        -7.53074        -2.86512
   H       14.23557        -2.15424        -2.05778
   H       11.61445        -5.95214        -3.95824
   H        8.73572        -1.71227        -4.99828
   H       10.63765         5.76531        -0.85115
   H        8.13349         6.09378        -1.81213
   H        6.07352         1.00126        -5.24795
   H        6.86328        -1.70101        -4.01836
   H        3.30708       -10.89597        -3.37490
   H        0.69585       -10.46285        -3.91823
   H        0.78937        -3.13465        -6.40218
   H       -1.18618        -5.13955        -5.20851
   H       -2.78886        -3.46275        -6.11593
   H       -3.01992         1.52744        -7.90087
   H        2.13902         3.25918        -6.76830
   H       -0.66196         5.51952        -9.06729
   H       -2.36776         3.73928        -8.78544
   H        1.48689         1.12067        -5.80071
*
