# ORCA input file
# SCF done       -216.434121803251          0.000965660092
! CAM-B3LYP def2-SVP def2/J RIJCOSX Grid4 TightSCF
%maxcore 5000
%tddft
    Mode sTDDFT
    Ethresh 5.0
    maxcore 5000
end

%pal
  nprocs 6
  end
* xyz 0 1
   C       14.25912         3.72396         0.56408
   C       14.26488         4.03464         1.89594
   F       15.34519         4.62531         2.43251
   C       13.17709         3.75998         2.73734
   C       12.06862         3.15875         2.21046
   C       12.00946         2.81534         0.84350
   C       13.12652         3.10242         0.00392
   C       13.09511         2.75851        -1.36788
   C       11.98482         2.14497        -1.88156
   C       10.86434         1.87551        -1.04008
   C       10.86909         2.19624         0.28868
   C        9.79561         1.25234        -1.83239
   O        8.71248         0.85789        -1.46744
   C       10.29265         1.28060        -3.24605
   C       11.69692         1.63922        -3.22162
   C       12.62314         1.33106        -4.17703
   C       12.34133         0.54614        -5.31789
   N       12.21441        -0.19863        -6.18217
   C       13.99674         1.63194        -4.05634
   N       15.11938         1.85879        -3.99556
   C        9.38964         1.12993        -4.24767
   C        9.53034         1.48654        -5.61627
   N       10.58931         2.14582        -6.06136
   C       10.43452         2.24125        -7.39880
   C        9.20310         1.57376        -7.83327
   C        9.05493         1.65298        -9.29477
   O        8.16663         1.21603        -9.98963
   C       10.26262         2.41184        -9.69447
   C       11.07040         2.75368        -8.50051
   N       12.16332         3.47696        -8.85133
   C       12.08726         3.60064       -10.15142
   C       10.91665         2.96887       -10.74184
   C        8.57614         1.13468        -6.69777
   C        7.33450         0.43301        -6.59776
   C        6.47150         0.53648        -5.56534
   C        5.27850        -0.22180        -5.37398
   N        4.35714         0.13025        -4.42748
   C        4.28804         1.33605        -3.64616
   C        3.91633         2.54505        -4.50117
   N        3.39672        -0.76773        -4.31795
   C        3.67163        -1.74116        -5.17934
   C        4.85065        -1.45641        -5.88593
   C        5.47332        -2.29623        -6.94788
   C        4.99045        -1.87935        -8.34031
   C        2.83702        -2.97510        -5.20791
   C        3.46153        -4.01695        -4.25932
   C        2.61683        -5.22019        -4.09145
   C        2.33470        -5.76824        -2.89702
   C        1.56614        -6.95944        -2.75476
   N        1.00590        -7.57175        -3.78596
   C        0.39971        -8.66417        -3.28684
   C        0.56668        -8.75158        -1.82389
   C       -0.07131        -9.97422        -1.30624
   O       -0.14743       -10.35857        -0.15654
   C       -0.59343       -10.60739        -2.52492
   C       -0.29742        -9.76965        -3.70854
   N       -0.76667       -10.35518        -4.83573
   C       -1.31120       -11.47986        -4.43711
   C       -1.23223       -11.70394        -3.00887
   C        1.32551        -7.66486        -1.46815
   C        1.84312        -7.28622        -0.19891
   C        1.62434        -8.01955         0.91957
   C        2.19415        -7.71802         2.18170
   C        2.26647        -8.57876         3.23175
   C        2.53145        -8.08764         4.61138
   O        2.95747        -6.99906         4.92342
   C        2.10648        -9.18848         5.49672
   C        2.04124        -9.21422         6.86038
   C        1.57587       -10.38052         7.50686
   C        1.17560       -11.50130         6.72175
   C        0.70658       -12.65885         7.37307
   C        0.64926       -12.68399         8.73867
   C        1.03973       -11.59332         9.52803
   C        1.49533       -10.46106         8.91245
   F        0.20299       -13.78896         9.36286
   C        1.25824       -11.44913         5.31081
   C        1.72533       -10.31310         4.70701
   C        1.96599        -9.99579         3.30160
   C        2.10494       -10.90708         2.29014
   C        2.65985       -10.61411         1.02460
   N        3.18482       -10.45529         0.01645
   C        1.83710       -12.28467         2.43768
   N        1.63004       -13.41083         2.50923
   H       15.11578         3.94732        -0.05228
   H       13.23944         4.02840         3.77994
   H       11.21879         2.93666         2.83809
   H       13.94919         2.99564        -1.98201
   H       10.01236         1.97733         0.90839
   H        8.42628         0.74720        -3.93399
   H       12.84987         4.13343       -10.69262
   H       10.67229         2.96597       -11.78559
   H        7.08038        -0.15304        -7.46782
   H        6.67185         1.26585        -4.79095
   H        5.24271         1.50225        -3.13656
   H        3.51794         1.15947        -2.89262
   H        2.95414         2.38050        -4.97963
   H        4.66085         2.71906        -5.27484
   H        3.84811         3.43136        -3.87655
   H        5.20645        -3.34206        -6.78242
   H        6.56105        -2.21661        -6.89182
   H        3.91125        -1.99458        -8.41446
   H        5.45887        -2.49844        -9.10138
   H        5.23296        -0.83921        -8.54511
   H        2.77073        -3.37815        -6.21853
   H        1.83559        -2.72558        -4.85685
   H        3.65365        -3.54914        -3.29135
   H        4.42549        -4.32650        -4.67770
   H        2.22070        -5.68833        -4.98219
   H        2.72129        -5.31583        -1.99431
   H       -1.76699       -12.14421        -5.15078
   H       -1.60931       -12.56231        -2.48909
   H        2.48678        -6.41808        -0.15083
   H        0.98326        -8.88830         0.85430
   H        2.55876        -6.71158         2.35874
   H        2.34141        -8.35377         7.43968
   H        0.40041       -13.51821         6.79728
   H        0.97253       -11.67155        10.60155
   H        1.80248        -9.60820         9.49893
   H        0.94223       -12.30797         4.74014
*
