# ORCA input file
# SCF done       -187.571825969837          0.000951594800
! CAM-B3LYP def2-SVP def2/J RIJCOSX Grid4 TightSCF
%maxcore 5000
%tddft
    Mode sTDDFT
    Ethresh 5.0
    maxcore 5000
end

%pal
  nprocs 6
  end
* xyz 0 1
   C       13.11332         9.23848        -0.95523
   C       13.81877        10.26251        -1.52382
   F       13.80955        11.47473        -0.94335
   C       14.56132        10.10057        -2.70183
   C       14.58343         8.87499        -3.30664
   C       13.87451         7.78342        -2.76316
   C       13.12299         7.96942        -1.56542
   C       12.39843         6.89250        -1.00428
   C       12.42894         5.67218        -1.62165
   C       13.19809         5.48542        -2.80691
   C       13.90105         6.51042        -3.37393
   C       13.10849         4.07831        -3.22924
   O       13.56086         3.55569        -4.21894
   C       12.37675         3.38833        -2.11791
   C       11.78549         4.40834        -1.27695
   C       10.67332         4.27334        -0.48745
   C        9.97152         3.06402        -0.32265
   N        9.35783         2.10552        -0.17105
   C       10.08368         5.33940         0.22386
   N        9.57151         6.16799         0.83028
   C       12.46987         2.03926        -2.00812
   C       12.20899         1.21716        -0.88161
   C       11.87123        -0.21322        -0.95970
   N       11.69501        -0.78653         0.19207
   C       11.91472         0.17892         1.12471
   C       12.25629         1.46380         0.47247
   C       12.56913         2.44925         1.47430
   S       13.24353         3.93447         1.25497
   C       12.29259         1.78779         2.72101
   C       11.92827         0.38169         2.47911
   N       11.71488        -0.26847         3.66099
   C       11.91567         0.61321         4.59185
   C       12.27539         1.94503         4.08918
   C       12.50315         3.10419         4.86091
   N       12.62762         4.29830         4.35795
   C       12.83742         5.19850         5.30571
   C       12.89590         4.70719         6.63631
   S       12.64453         3.01458         6.64355
   N       13.12452         5.60528         7.58216
   C       13.24378         6.79976         7.07948
   S       13.06559         6.89324         5.29886
   C       13.53015         7.95767         7.83303
   C       13.49844         9.33890         7.34092
   N       13.84820        10.22516         8.22369
   C       14.15023         9.52483         9.35324
   C       13.91865         8.08250         9.15043
   C       14.32617         7.34192        10.31395
   S       14.30927         5.72082        10.56050
   C       14.82444         8.35714        11.21226
   C       14.69488         9.69222        10.59980
   N       15.24385        10.64134        11.40721
   C       15.76549         9.99577        12.40629
   C       15.56864         8.53823        12.35111
   C       16.05206         7.59254        13.30018
   C       17.23833         7.65894        13.95064
   C       17.48431         6.85456        15.18669
   O       16.81770         5.93301        15.58972
   C       18.66385         7.47706        15.81465
   C       19.24135         7.19268        17.01929
   C       20.37131         7.93117        17.43415
   C       20.88075         8.96248        16.59087
   C       22.00629         9.69679        17.01184
   C       22.58646         9.40403        18.21496
   C       22.10101         8.39392        19.05765
   C       21.00850         7.67219        18.66529
   F       23.66123        10.10160        18.61770
   C       20.26541         9.23451        15.34729
   C       19.17761         8.49795        14.96100
   C       18.38643         8.52013        13.73586
   C       18.77191         9.06319        12.53894
   C       18.13440         8.79228        11.30960
   N       17.70078         8.54041        10.27708
   C       19.92550         9.86039        12.37810
   N       20.84111        10.53089        12.21146
   H       12.55066         9.39952        -0.04916
   H       15.09869        10.94488        -3.10362
   H       15.14907         8.72588        -4.21390
   H       11.85157         7.05261        -0.08893
   H       14.47471         6.35079        -4.27455
   H       12.85871         1.52909        -2.88540
   H       11.75148        -0.76431        -1.87599
   H       11.80945         0.35813         5.63196
   H       13.20269         9.63061         6.34807
   H       16.24487        10.52299        13.21346
   H       15.39696         6.76738        13.56012
   H       18.84121         6.41077        17.64711
   H       22.40886        10.47881        16.38721
   H       22.59989         8.20878        19.99556
   H       20.61712         6.88925        19.29705
   H       20.66568        10.02533        14.73276
*
