# ORCA input file
# SCF done       -190.608041835250          0.000667310065
! CAM-B3LYP def2-SVP def2/J RIJCOSX Grid4 TightSCF
%maxcore 5000
%tddft
    Mode sTDDFT
    Ethresh 5.0
    maxcore 5000
end

%pal
  nprocs 6
  end
* xyz 0 1
   C        4.64357        -3.82036        -2.23291
   C        4.34613        -4.32351        -0.99002
   C        5.30592        -4.57115         0.01311
   N        6.02945        -4.79306         0.87668
   C        3.06020        -4.66506        -0.52448
   N        2.05018        -4.97289        -0.06962
   C        5.98582        -3.47096        -2.69984
   C        5.89617        -2.98739        -4.01664
   C        7.00830        -2.57672        -4.72049
   C        8.24708        -2.64978        -4.09449
   C        8.34715        -3.13000        -2.78553
   C        7.22174        -3.54321        -2.07973
  Cl        9.88439        -3.21598        -2.02265
  Cl        9.65769        -2.14676        -4.93602
   C        4.48184        -3.00892        -4.45052
   O        4.05581        -2.65927        -5.53553
   C        3.72502        -3.53248        -3.31131
   C        2.36143        -3.71058        -3.26884
   C        1.37900        -3.45561        -4.22330
   S        1.57999        -2.81578        -5.85011
   C       -0.12180        -2.85926        -6.13886
   C       -0.81921        -3.33017        -5.07379
   C        0.01599        -3.67714        -3.98390
   C       -0.78556        -4.15592        -2.91484
   C       -2.10417        -4.11738        -3.27927
   C       -2.23950        -3.58026        -4.68988
   C       -3.23703        -4.49299        -2.47588
   C       -4.52072        -4.19404        -2.88066
   C       -5.61979        -4.50715        -2.05819
   C       -6.97570        -4.25971        -2.21902
   C       -7.62227        -3.58964        -3.38534
   C       -8.66781        -4.49925        -4.05688
   N       -8.82030        -4.11028        -5.44600
   C       -8.21563        -2.22951        -2.97571
   N       -8.64787        -1.47919        -4.14596
   C       -7.63056        -4.75479        -1.03111
   C       -8.91439        -4.71762        -0.62955
   C       -9.33540        -5.22432         0.71105
   C       -8.25574        -5.91153         1.48277
   C       -6.97531        -5.94181         1.07086
   C       -6.60198        -5.34476        -0.15719
   C       -5.38742        -5.18136        -0.78754
   C       -4.06344        -5.51486        -0.41482
   C       -3.03246        -5.17362        -1.22475
   C      -10.55715        -6.09162         0.56481
   C      -11.79826        -5.61329         0.70425
   C      -13.01239        -6.35675         0.56931
   S      -14.51793        -5.48415         0.47069
   C      -15.45561        -6.93534         0.33128
   C      -14.66165        -8.02488         0.36667
   C      -13.26613        -7.71725         0.50276
   C      -12.53816        -8.93221         0.57445
   C      -13.40319        -9.99598         0.47446
   C      -14.83106        -9.50331         0.32289
   C      -13.17185       -11.38366         0.54078
   C      -12.02200       -12.13030         0.61564
   C      -12.02355       -13.57859         0.74673
   C      -13.09312       -14.38828         1.03180
   C      -13.01063       -15.79212         1.15534
   N      -13.02154       -16.93441         1.26825
   C      -14.41835       -13.96979         1.27763
   N      -15.51753       -13.72829         1.50991
   C      -10.64730       -14.04232         0.59115
   C       -9.81139       -12.92406         0.44267
   C      -10.61851       -11.68512         0.48118
   O      -10.17488       -10.55811         0.39780
   C       -8.44646       -13.04880         0.28484
   C       -7.89949       -14.32574         0.27147
   C       -8.72473       -15.44664         0.41412
   C      -10.09970       -15.31477         0.57558
  Cl       -8.03771       -17.02033         0.38962
  Cl       -6.20511       -14.52598         0.07739
   H        6.91633        -2.20850        -5.73000
   H        7.33970        -3.90716        -1.07240
   H        1.95518        -4.10642        -2.34676
   H       -0.49765        -2.52732        -7.08774
   H       -0.39420        -4.47627        -1.96706
   H       -2.82464        -2.65902        -4.71627
   H       -2.72479        -4.30439        -5.34717
   H       -4.69666        -3.69384        -3.82075
   H       -6.85622        -3.40026        -4.14394
   H       -9.60987        -4.46070        -3.48570
   H       -8.30627        -5.53292        -4.03339
   H       -9.12745        -3.14182        -5.47950
   H       -9.52103        -4.68581        -5.90034
   H       -7.46094        -1.69299        -2.37438
   H       -9.09282        -2.38242        -2.34198
   H       -7.84693        -1.25520        -4.72858
   H       -9.07808        -0.60473        -3.86377
   H       -9.70131        -4.29762        -1.23903
   H       -9.63765        -4.33083         1.28424
   H       -8.55917        -6.37012         2.41138
   H       -6.21591        -6.42443         1.66854
   H       -3.88706        -6.03127         0.51705
   H       -2.02445        -5.42703        -0.93993
   H      -10.37237        -7.12187         0.30528
   H      -11.93858        -4.56071         0.92296
   H      -16.52049        -6.86152         0.23774
   H      -11.47713        -9.01723         0.70350
   H      -15.46647        -9.87313         1.13042
   H      -15.27033        -9.83957        -0.61904
   H      -14.09058       -11.95859         0.52465
   H       -7.82316       -12.17552         0.17484
   H      -10.70183       -16.20209         0.67967
*
