# ORCA input file
# SCF done       -216.118758028170          0.000268689998
! CAM-B3LYP def2-SVP def2/J RIJCOSX Grid4 TightSCF
%maxcore 5000
%tddft
    Mode sTDDFT
    Ethresh 5.0
    maxcore 5000
end

%pal
  nprocs 6
  end
* xyz 0 1
   C       10.69602        -0.86951        -0.52200
   C        9.59918        -1.17686        -1.29045
   C        8.68163        -0.06149        -1.42237
   N        7.54097        -0.19982        -2.10332
   C        7.30479        -1.36331        -2.66443
   C        6.01130        -1.51247        -3.37127
   O        5.14464        -0.66427        -3.34638
   C        5.83991        -2.78792        -4.09305
   C        6.72654        -3.78636        -4.05161
   C        7.98753        -3.73218        -3.28807
   O        8.75551        -4.66821        -3.24895
   C        8.24385        -2.44609        -2.58434
   N        9.35672        -2.35035        -1.90291
   C        9.12788         1.09069        -0.76978
   S       10.63369         0.74860         0.01803
   C        8.53014         2.39284        -0.71983
   C        9.19627         3.44003        -0.06019
   C        8.64121         4.69325        -0.04032
   C        7.43059         4.93840        -0.71705
   C        6.74819         3.90238        -1.34290
   C        7.29393         2.63658        -1.33964
   C        7.15199         6.35341        -0.65661
   C        8.19271         6.98869         0.04631
   C        9.17304         5.96528         0.58754
   C       10.63592         6.16197         0.15330
   C       11.32325         7.44523         0.60023
   C        8.98693         5.94522         2.12319
   C        9.79976         4.89879         2.87371
   C        8.16125         8.35048         0.22082
   C        7.13769         9.11461        -0.36057
   C        6.10007         8.46210        -1.03577
   C        6.09269         7.08962        -1.17036
   C        7.23101        10.55426        -0.24557
   C        6.50742        11.46505        -0.91125
   C        6.76831        12.89831        -0.84408
   C        5.76884        13.87634        -0.92507
   N        4.38755        13.72805        -0.93596
   C        3.73778        12.64531        -0.22346
   C        2.98822        13.14257         1.01002
   C        3.83197        14.97218        -1.15507
   C        4.85834        15.94954        -1.18111
   C        6.10030        15.24194        -1.04949
   C        7.42057        15.66655        -1.01592
   C        8.40646        14.71018        -0.87169
   C        8.08388        13.36243        -0.80167
   C        4.56903        17.30009        -1.27534
   C        3.24007        17.68973        -1.33136
   C        2.23445        16.74331        -1.36697
   C        2.49268        15.36283        -1.35306
   C        1.40490        14.47990        -1.65984
   C        1.53097        13.29525        -2.31527
   C        0.44553        12.46602        -2.64924
   C        0.58245        11.20823        -3.17852
   C       -0.44533        10.32730        -3.58860
   C       -0.00135         9.11905        -4.03492
   C        1.40249         8.97050        -3.98396
   S        2.14830        10.42731        -3.38455
   C        2.14384         7.84661        -4.30942
   C        1.66703         6.61759        -4.80632
   C        2.64507         5.68165        -4.98218
   C        3.93842         6.12437        -4.63047
   S        3.88017         7.78483        -4.08654
   C        5.09167         5.36205        -4.65754
   C        6.34009         5.82540        -4.26402
   C        7.46533         5.02646        -4.16824
   C        8.77073         5.42457        -3.72286
   C        9.21602         6.70673        -3.48518
   C       10.56112         7.03570        -3.23501
   N       11.64695         7.37520        -3.06827
   C        8.43111         7.87361        -3.52473
   N        7.87271         8.87873        -3.51705
   C        9.59085         4.21872        -3.61623
   C        8.83759         3.11788        -4.08704
   C        7.49291         3.58677        -4.48697
   O        6.62040         2.90677        -4.98868
   C        9.32902         1.83821        -4.12249
   C       10.62219         1.62413        -3.63238
   C       11.35333         2.72277        -3.12685
   C       10.86517         4.02451        -3.12223
   S       12.91002         2.23182        -2.52807
   C       12.56566         0.58131        -2.97207
   C       11.34924         0.40447        -3.53898
  Br       13.83151        -0.75546        -2.61678
   H       11.51906        -1.50368        -0.26241
   H        4.92094        -2.87345        -4.65777
   H        6.55640        -4.71347        -4.58293
   H       10.14962         3.23982         0.40715
   H        5.80589         4.08328        -1.83728
   H        6.78343         1.82240        -1.82760
   H       10.66259         6.12231        -0.93622
   H       11.20962         5.30909         0.51998
   H       10.89992         8.30866         0.09609
   H       12.37575         7.39380         0.33056
   H       11.25399         7.58489         1.67598
   H        7.92502         5.77633         2.32284
   H        9.23457         6.93654         2.50655
   H        9.59853         4.98453         3.93958
   H       10.86635         5.03905         2.72127
   H        9.52643         3.89511         2.55932
   H        8.92673         8.85694         0.78838
   H        5.28989         9.03604        -1.45762
   H        5.27682         6.59227        -1.67320
   H        7.99900        10.90571         0.43342
   H        5.73334        11.15525        -1.59994
   H        4.52322        11.95793         0.09558
   H        3.04797        12.09698        -0.87149
   H        3.64869        13.73372         1.64086
   H        2.63003        12.29056         1.58175
   H        2.13423        13.75480         0.73206
   H        7.66467        16.71328        -1.10992
   H        9.44437        15.00599        -0.84408
   H        8.88089        12.63583        -0.76393
   H        5.36318        18.03030        -1.28836
   H        2.98636        18.73798        -1.37469
   H        1.20849        17.06605        -1.47053
   H        0.40894        14.84557        -1.43924
   H        2.50914        12.97361        -2.64570
   H       -0.55829        12.82565        -2.46395
   H       -1.48045        10.61688        -3.54469
   H       -0.64300         8.33102        -4.38516
   H        0.62662         6.45151        -5.02024
   H        2.47788         4.68387        -5.34648
   H        4.99715         4.33397        -4.97714
   H        6.41964         6.86676        -3.97638
   H        8.72870         1.02669        -4.50282
   H       11.47640         4.82717        -2.74494
   H       10.97985        -0.54790        -3.87491
*
