# ORCA input file
# SCF done       -202.543855859362          0.000585727345
! CAM-B3LYP def2-SVP def2/J RIJCOSX Grid4 TightSCF
%maxcore 5000
%tddft
    Mode sTDDFT
    Ethresh 5.0
    maxcore 5000
end

%pal
  nprocs 6
  end
* xyz 0 1
   C       -2.03540        -0.55519        -0.19196
   C       -2.45765        -1.79778        -0.58833
   C       -1.59936        -2.89865        -0.78723
   N       -0.95208        -3.83063        -0.96276
   C       -3.79284        -2.13843        -0.89210
   N       -4.84459        -2.49009        -1.19013
   C       -0.65105        -0.14551         0.00321
   C       -0.62310         1.24366         0.28320
   C        0.54721         1.92968         0.50081
   C        1.74722         1.21562         0.42998
   C        1.70882        -0.17198         0.15428
   C        0.52527        -0.86858        -0.05885
   S        3.30629        -0.85040         0.12093
   C        3.99726         0.69767         0.46501
   C        3.08151         1.68122         0.60170
   C       -1.99998         1.76998         0.31691
   O       -2.33218         2.88665         0.65477
   C       -2.87578         0.61116        -0.00104
   C       -4.23591         0.62484         0.06378
   C       -5.04803         1.79568         0.02592
   C       -6.27347         1.84522         0.72264
   C       -7.09017         3.03359         0.74602
   N       -8.27333         3.00342         1.37956
   C       -8.63334         1.92281         2.02781
   C       -7.77580         0.77542         2.07817
   N       -6.64327         0.75778         1.42216
   C       -8.16309        -0.35931         2.83446
   N       -8.51123        -1.24827         3.46766
   C       -9.89167         1.90114         2.67828
   N      -10.89707         1.86040         3.22646
   C       -6.70691         4.22442         0.07953
   C       -5.54516         4.12741        -0.71416
   C       -4.73224         2.93108        -0.74474
   N       -3.71160         3.04282        -1.59323
   S       -3.72272         4.51110        -2.23047
   N       -5.03564         5.07700        -1.50721
   C       -7.46679         5.45071         0.19824
   C       -7.51015         6.35531        -0.87794
   C       -8.24562         7.50658        -0.76862
   C       -8.92111         7.81273         0.43005
   C       -8.87185         6.93383         1.50568
   C       -8.15488         5.76442         1.38162
   C       -9.52291         9.11485         0.30183
   C       -9.20441         9.63327        -0.96883
   C       -8.44750         8.60655        -1.78552
   C       -7.11797         9.14612        -2.33040
   C       -6.22216         9.69828        -1.22763
   C       -9.39420         8.16046        -2.92606
   C       -8.91545         6.97882        -3.75886
   C       -9.60845        10.89045        -1.33489
   C      -10.36592        11.66677        -0.43779
   C      -10.70966        11.11506         0.81038
   C      -10.28810         9.86154         1.19133
   C      -10.80898        12.99319        -0.74954
   C      -10.36380        13.77599        -1.76888
   C      -10.84583        15.07464        -2.01098
   C      -10.35551        15.91998        -2.97213
   C      -10.81176        17.23052        -3.26584
   C      -10.12363        17.85670        -4.25655
   C       -9.07175        17.08302        -4.80482
   S       -9.00747        15.51421        -4.02510
   C       -8.17849        17.45062        -5.78476
   C       -8.12700        18.68669        -6.48555
   C       -7.11755        18.77677        -7.38066
   C       -6.28303        17.61478        -7.45216
   S       -6.89038        16.39469        -6.31934
   C       -5.18965        17.44236        -8.21660
   C       -4.36050        16.20364        -8.25601
   C       -4.47893        15.56613        -9.61330
   C       -3.78721        15.91033       -10.69614
   O       -3.97042        15.29239       -11.91686
   C       -3.82023        13.88817       -11.93527
   C       -2.51424        13.42225       -11.28456
   C       -1.26376        14.13310       -11.83064
   O       -0.92429        15.33595       -11.17976
   C       -1.54276        16.52138       -11.63375
   C       -2.72266        16.97173       -10.75607
   H        0.53635         2.98736         0.71441
   H        0.54713        -1.92699        -0.25839
   H        5.06410         0.77576         0.54536
   H        3.32585         2.70569         0.81742
   H       -4.77752        -0.30448         0.18735
   H       -6.96280         6.12524        -1.77619
   H       -9.37067         7.17082         2.43319
   H       -8.08719         5.09595         2.22423
   H       -7.32777         9.93228        -3.05897
   H       -6.59010         8.34167        -2.84322
   H       -6.71589        10.51110        -0.69916
   H       -5.29537        10.07674        -1.65248
   H       -5.97818         8.91867        -0.50965
   H       -9.55201         9.02031        -3.58126
   H      -10.35921         7.90516        -2.48007
   H       -7.95088         7.17992        -4.21706
   H       -9.63292         6.78655        -4.55392
   H       -8.83824         6.08194        -3.15073
   H       -9.36334        11.28254        -2.30981
   H      -11.30524        11.70759         1.49024
   H      -10.54851         9.46414         2.16078
   H      -11.54820        13.41275        -0.07748
   H       -9.58396        13.42150        -2.42969
   H      -11.65692        15.44261        -1.39580
   H      -11.63688        17.66496        -2.72924
   H      -10.33503        18.85216        -4.60362
   H       -8.84315        19.46712        -6.29961
   H       -6.92031        19.63380        -7.99976
   H       -4.89809        18.23822        -8.88734
   H       -4.70507        15.50508        -7.49167
   H       -3.31745        16.45921        -8.04902
   H       -5.23255        14.79616        -9.69508
   H       -3.83077        13.62743       -12.99732
   H       -4.67047        13.39178       -11.44758
   H       -2.41695        12.35016       -11.45846
   H       -2.55884        13.59313       -10.20729
   H       -1.37435        14.30024       -12.91135
   H       -0.39717        13.48551       -11.66549
   H       -1.87945        16.40523       -12.67028
   H       -0.76962        17.29761       -11.60115
   H       -3.13257        17.88633       -11.19104
   H       -2.36216        17.19539        -9.75283
*
