# ORCA input file
# SCF done       -191.211663992396          0.000367577247
! CAM-B3LYP def2-SVP def2/J RIJCOSX Grid4 TightSCF
%maxcore 5000
%tddft
    Mode sTDDFT
    Ethresh 5.0
    maxcore 5000
end

%pal
  nprocs 6
  end
* xyz 0 1
   C       -1.41305         0.58628         0.15953
   C       -1.10184        -0.36301         1.10459
   C       -0.26686        -1.47009         0.86512
   N        0.39747        -2.39708         0.72311
   C       -1.61116        -0.38236         2.41889
   N       -2.00775        -0.49210         3.49124
   C       -1.00177         0.54801        -1.24296
   C       -1.59718         1.63875        -1.91552
   C       -1.45957         1.84775        -3.26458
   C       -0.72176         0.90985        -3.99374
   C       -0.11983        -0.17120        -3.31266
   C       -0.23440        -0.36546        -1.94186
   S        0.69460        -1.24310        -4.41132
   C        0.20385        -0.24615        -5.75257
   C       -0.51816         0.84314        -5.39873
  Br        0.64767        -0.75559        -7.50105
   C       -2.39601         2.42959        -0.95368
   O       -2.92077         3.50073        -1.18311
   C       -2.30121         1.70508         0.32959
   C       -2.87274         2.15124         1.49955
   C       -3.97852         3.02361         1.53734
   C       -4.20173         3.89780         2.62993
   C       -5.20674         4.93903         2.60829
   N       -5.27252         5.78347         3.63289
   C       -4.46160         5.64457         4.66666
   C       -3.50260         4.59628         4.70048
   N       -3.38486         3.77225         3.68481
   C       -2.66102         4.44388         5.83090
   N       -2.00164         4.37358         6.76497
   C       -4.58444         6.56247         5.73425
   N       -4.69211         7.30485         6.60224
   C       -6.07939         5.12256         1.48384
   C       -5.99076         4.06694         0.52097
   C       -4.97162         3.05650         0.52962
   N       -5.12568         2.17801        -0.45446
   S       -6.41185         2.59426        -1.33489
   N       -6.83685         3.89377        -0.48764
   C       -6.89311         6.23389         1.16539
   S       -7.32068         6.32385        -0.53521
   C       -7.43164         7.35754         1.84276
   C       -7.40145         7.60277         3.31707
   C       -6.33822         8.64804         3.70003
   N       -6.69886         9.25042         4.97193
   C       -8.07656         8.25591         1.00164
   C       -8.78487         9.49609         1.44501
   C      -10.30207         9.26358         1.52536
   N      -10.96535        10.53474         1.75570
   C       -8.06035         7.87829        -0.36215
   C       -8.55169         8.57214        -1.46134
   C       -8.42917         8.16050        -2.78333
   C       -8.88736         8.83426        -3.93355
   C       -8.59523         8.20122        -5.11567
   C       -7.89419         6.99910        -4.94320
   S       -7.62191         6.68839        -3.24532
   C       -7.38952         6.08815        -5.86908
   C       -7.41094         6.11418        -7.27424
   C       -6.76685         5.05291        -7.84949
   C       -6.21196         4.13455        -6.92960
   S       -6.54991         4.67469        -5.29523
   C       -5.49751         2.99994        -7.24773
   C       -4.94178         2.04329        -6.38249
   C       -4.18707         0.91851        -6.85098
   C       -3.79678         0.15377        -5.76505
   C       -3.04395        -1.03273        -5.68129
   C       -2.82967        -1.56140        -4.43194
   C       -2.10494        -2.70804        -4.00372
   C       -2.17491        -2.79233        -2.61460
   C       -2.95704        -1.70481        -2.14813
   C       -3.36346        -0.92698        -3.23763
   C       -4.10127         0.25117        -3.30862
   C       -4.31594         0.79624        -4.56912
   C       -5.00143         1.95182        -4.97441
   C       -1.55525        -3.76981        -1.75078
   C       -0.65503        -4.66921        -2.13738
   H       -1.93213         2.68794        -3.74860
   H        0.24590        -1.20691        -1.47095
   H       -0.90195         1.56515        -6.09620
   H       -2.45122         1.87071         2.45611
   H       -7.20896         6.67971         3.85720
   H       -8.37105         7.98939         3.63337
   H       -6.31224         9.44555         2.95116
   H       -5.34921         8.16591         3.69896
   H       -6.65885         8.55202         5.70880
   H       -6.02758         9.97040         5.21861
   H       -8.60605        10.30499         0.73513
   H       -8.42971         9.82359         2.42004
   H      -10.50836         8.50818         2.30274
   H      -10.66620         8.86605         0.57321
   H      -10.66792        10.92810         2.64299
   H      -11.97080        10.40986         1.79532
   H       -9.04856         9.51733        -1.29252
   H       -9.41553         9.76894        -3.86497
   H       -8.86650         8.57861        -6.08548
   H       -7.88638         6.90662        -7.82358
   H       -6.67515         4.90641        -8.91151
   H       -5.34679         2.82436        -8.30661
   H       -3.96695         0.71589        -7.88381
   H       -2.65649        -1.50319        -6.57439
   H       -1.60660        -3.39828        -4.65845
   H       -3.20661        -1.51897        -1.11869
   H       -4.48647         0.72372        -2.41615
   H       -5.48890         2.63589        -4.30694
   H       -1.84853        -3.71918        -0.71048
   H       -0.31445        -4.73895        -3.15671
   H       -0.21807        -5.35827        -1.43706
*
