# ORCA input file
# SCF done       -190.558098789262          0.000919905249
! CAM-B3LYP def2-SVP def2/J RIJCOSX Grid4 TightSCF
%maxcore 5000
%tddft
    Mode sTDDFT
    Ethresh 5.0
    maxcore 5000
end

%pal
  nprocs 6
  end
* xyz 0 1
   C       -6.38248         2.40849         4.27427
   C       -6.76234         1.58477         5.30203
   C       -6.02780         1.41065         6.49259
   N       -5.47023         1.23161         7.47979
   C       -7.93916         0.80857         5.29541
   N       -8.88808         0.16361         5.33029
   C       -5.17402         3.22894         4.23635
   C       -5.13452         3.93514         3.00546
   C       -4.11455         4.79595         2.67824
   C       -3.08496         4.97185         3.60860
   C       -3.13287         4.26421         4.83332
   C       -4.16381         3.39141         5.16367
   S       -1.76499         4.63128         5.83747
   C       -1.15439         5.71644         4.61703
   C       -1.93403         5.80030         3.51232
  Br        0.45076         6.63869         4.91598
   C       -6.32480         3.58603         2.22282
   O       -6.63536         4.00281         1.10716
   C       -7.08787         2.63803         3.03503
   C       -8.28788         2.12330         2.60112
   N       -8.77517         2.48891         1.41278
   C       -9.95405         2.12179         0.84841
   S      -11.05059         1.03174         1.63864
   C      -12.14974         1.22264         0.31446
   N      -13.36086         0.51725         0.35362
   O      -14.13053         0.67199        -0.57609
   O      -13.55215        -0.19382         1.32293
   C      -11.69684         2.06645        -0.66468
   C      -10.42448         2.59863        -0.38105
   C       -9.68879         3.50913        -1.21853
   C      -10.24164         4.21966        -2.21818
   N       -9.52912         5.03187        -3.04962
   C      -10.07913         6.03923        -3.82542
   C      -11.33809         6.55397        -3.71446
   S      -11.62260         7.82968        -4.82921
   C      -10.03765         7.68436        -5.46691
   C       -9.32372         6.69242        -4.85763
   N       -8.02800         6.31259        -5.17553
   C       -7.13247         7.09915        -5.82264
   C       -5.99773         6.63823        -6.40994
   C       -5.04910         7.48959        -7.00447
   C       -3.95109         7.07444        -7.71117
   C       -2.95743         7.89585        -8.29612
   C       -1.99606         7.21367        -8.97690
   C       -2.18332         5.81241        -8.98468
   S       -3.60012         5.38338        -8.06293
   C       -1.41376         4.86813        -9.64322
   C       -0.24761         5.08991       -10.40279
   C        0.26202         3.95805       -10.97036
   C       -0.48176         2.78988       -10.69777
   S       -1.83348         3.16670        -9.65980
   C       -0.21245         1.52068       -11.17831
   C       -1.02227         0.41796       -10.94920
   C       -0.84358        -0.87423       -11.40399
   C        0.28915        -1.53694       -11.98391
   C        1.62034        -1.24145       -11.78830
   C        2.67934        -1.95911       -12.37454
   N        3.58419        -2.49124       -12.84221
   C        2.09469        -0.26245       -10.89475
   N        2.54329         0.48413       -10.14539
   C       -0.20598        -2.73638       -12.66202
   C       -1.57311        -2.90825       -12.33268
   C       -2.00771        -1.77881       -11.48020
   O       -3.10282        -1.60995       -10.98447
   C       -2.31610        -3.96540       -12.79488
   C       -1.68378        -4.89119       -13.63349
   C       -0.32305        -4.70348       -13.96564
   C        0.43316        -3.63812       -13.48871
   S        0.25545        -5.95496       -15.02450
   C       -1.31914        -6.70366       -15.00432
   C       -2.23129        -6.05298       -14.24520
  Br       -1.60980        -8.27458       -15.98896
   H       -4.11018         5.32009         1.73540
   H       -4.15503         2.87590         6.10932
   H       -1.70735         6.42073         2.66463
   H       -8.87275         1.42911         3.19025
   H       -8.16825         3.16022         0.90791
   H      -12.26736         2.26347        -1.55306
   H       -8.63323         3.62937        -1.01655
   H      -11.29717         4.16874        -2.43384
   H       -8.52963         5.07280        -2.90016
   H      -12.11165         6.27812        -3.02819
   H       -9.73165         8.31638        -6.27498
   H       -7.81011         5.32714        -5.10331
   H       -7.36701         8.15381        -5.82365
   H       -5.80431         5.57393        -6.44027
   H       -5.19678         8.55722        -6.90624
   H       -2.98653         8.96640        -8.19382
   H       -1.16968         7.67775        -9.48369
   H        0.18603         6.06741       -10.51352
   H        1.14777         3.92676       -11.57918
   H        0.66182         1.42597       -11.80556
   H       -1.96702         0.59122       -10.44174
   H       -3.35402        -4.07602       -12.52254
   H        1.46707        -3.53529       -13.77361
   H       -3.24891        -6.37561       -14.12079
*
