# ORCA input file
# SCF done       -168.831483739597          0.000313180017
! CAM-B3LYP def2-SVP def2/J RIJCOSX Grid4 TightSCF
%maxcore 5000
%tddft
    Mode sTDDFT
    Ethresh 5.0
    maxcore 5000
end

%pal
  nprocs 6
  end
* xyz 0 1
   C        8.44392        -4.42136       -12.21218
   C        9.24210        -4.08083       -11.19273
   C       10.46540        -3.33011       -11.24075
   C       11.07695        -3.17543       -10.04675
   C       10.38742        -3.77315        -8.95410
   S        8.91366        -4.54370        -9.51533
   C       10.75665        -3.79884        -7.63432
   C       11.93009        -3.29594        -7.01597
   C       12.00447        -3.51831        -5.67814
   C       10.88415        -4.20219        -5.13701
   S        9.72879        -4.55799        -6.43323
   C       10.63113        -4.56627        -3.84906
   N        9.45993        -5.18270        -3.53592
   C        9.00284        -5.63814        -2.35223
   S        9.97197        -5.64272        -0.91731
   C        8.65171        -6.37884        -0.05530
   N        8.85209        -6.65263         1.29269
   O        7.93890        -7.16943         1.91563
   O        9.94407        -6.35050         1.75672
   C        7.54188        -6.59752        -0.83248
   C        7.71474        -6.17508        -2.15930
   C        6.74220        -6.22215        -3.21413
   C        5.50574        -6.75208        -3.16443
   N        4.68993        -6.69079        -4.25992
   C        3.42521        -7.15818        -4.39562
   S        2.62455        -8.00585        -3.11617
   C        1.22428        -8.17363        -4.13033
   N        0.12214        -8.83807        -3.60906
   O       -0.86324        -8.95600        -4.32243
   O        0.21903        -9.26196        -2.46525
   C        1.38187        -7.60740        -5.37111
   C        2.64170        -7.01606        -5.55231
   C        3.10386        -6.33077        -6.73281
   C        2.39653        -6.17914        -7.86568
   N        2.82911        -5.52987        -8.99113
   C        3.88539        -4.62793        -9.09535
   C        4.35116        -3.79338        -8.12400
   S        5.62298        -2.78426        -8.68481
   C        5.53772        -3.48011       -10.25731
   C        4.58443        -4.45098       -10.34172
   N        4.23830        -5.18976       -11.45609
   C        4.80977        -5.02839       -12.71136
   C        4.75145        -5.96719       -13.65964
   N        5.36820        -5.88728       -14.91386
   N        4.71745        -6.51555       -16.02418
   C        3.97104        -5.48241       -16.74873
   C        2.43345        -5.53990       -16.64234
   C        1.86888        -5.93853       -15.27736
   C        1.88480        -4.19336       -17.15084
   C        2.40619        -2.95948       -16.34767
   N        1.31504        -2.44031       -15.54126
   S       -0.06461        -2.58131       -16.51241
   N        0.43203        -4.18756       -17.02578
   C        3.64512        -3.23070       -15.49898
   C        4.34203        -1.92033       -15.14085
   C        4.61037        -4.15878       -16.24672
   N        5.68741        -4.60250       -15.36149
   C        7.00342        -4.42479       -15.77688
   C        8.01645        -5.22370       -15.47722
   H        8.67155        -4.12693       -13.22165
   H        7.55983        -5.01523       -12.06694
   H       10.83431        -2.94869       -12.17627
   H       12.00289        -2.64784        -9.90018
   H       12.68908        -2.79204        -7.58697
   H       12.82419        -3.21289        -5.05287
   H       11.32766        -4.37535        -3.04842
   H        8.83676        -5.31063        -4.32658
   H        6.64756        -7.03984        -0.43505
   H        7.02882        -5.76386        -4.15385
   H        5.09482        -7.23856        -2.29485
   H        5.07579        -6.22863        -5.07471
   H        0.59537        -7.63129        -6.10179
   H        4.10018        -5.91565        -6.70399
   H        1.41557        -6.61910        -7.96886
   H        2.23696        -5.58813        -9.80527
   H        3.98979        -3.67740        -7.12307
   H        6.21367        -3.13485       -11.01110
   H        3.85134        -6.10463       -11.26973
   H        5.26506        -4.06997       -12.89391
   H        4.31651        -6.93766       -13.45962
   H        4.13593        -7.28280       -15.70747
   H        4.22436        -5.60905       -17.81007
   H        2.08958        -6.30306       -17.35149
   H        2.33586        -5.40931       -14.45205
   H        1.99560        -7.00732       -15.11256
   H        0.80233        -5.72677       -15.27367
   H        2.21077        -4.08170       -18.19582
   H        2.63746        -2.17197       -17.07617
   H        1.20099        -2.97480       -14.68330
   H       -0.04678        -4.43393       -17.88237
   H        3.34513        -3.71006       -14.56447
   H        4.68113        -1.40877       -16.03899
   H        5.20442        -2.11478       -14.50829
   H        3.65257        -1.26776       -14.61230
   H        5.03333        -3.60303       -17.08854
   H        7.14897        -3.49873       -16.31583
   H        7.86673        -6.14245       -14.94062
   H        9.01779        -4.98172       -15.78119
*
