# ORCA input file
# SCF done       -165.107547784470          0.000754610516
! CAM-B3LYP def2-SVP def2/J RIJCOSX Grid4 TightSCF
%maxcore 5000
%tddft
    Mode sTDDFT
    Ethresh 5.0
    maxcore 5000
end

%pal
  nprocs 6
  end
* xyz 0 1
   C       11.95255        -7.26352        10.23241
   C       12.42883        -7.85507         9.12851
   C       13.77792        -7.84464         8.63959
   C       13.96069        -8.53101         7.49018
   C       12.78149        -9.13777         6.97404
   S       11.41789        -8.79957         8.02188
   C       12.66030        -9.88060         5.82434
   C       13.67466       -10.22393         4.89713
   C       13.22824       -10.94924         3.83951
   C       11.83615       -11.23543         3.86216
   S       11.11689       -10.53260         5.29833
   C       11.17125       -11.89000         2.85714
   C        9.81888       -12.25278         2.75203
   S        9.21631       -12.62814         1.14584
   C        7.58917       -12.93207         1.69639
   C        7.53093       -12.79289         3.08279
   C        8.77519       -12.40913         3.65523
   S        8.69359       -12.35968         5.38733
   C        7.02180       -12.82121         5.32922
   C        6.53903       -13.00579         4.08271
   C        6.61060       -13.26567         0.72807
   C        5.28631       -13.39667         0.95937
   N        4.39218       -13.74137        -0.01941
   C        3.07043       -14.01096         0.15617
   S        1.99752       -13.73666        -1.18980
   C        0.64045       -14.13708        -0.18268
   N       -0.62432       -14.12245        -0.75949
   O       -1.57920       -14.39651        -0.04951
   O       -0.68739       -13.83354        -1.94695
   C        1.00563       -14.45643         1.10061
   C        2.39311       -14.42123         1.31093
   C        2.98959       -14.86114         2.56027
   C        4.13404       -15.55670         2.63730
   C        4.82370       -15.98767         3.83414
   C        6.00268       -16.73249         3.68018
   C        6.71472       -17.12311         4.78623
   C        6.28076       -16.76811         6.07461
   C        5.11668       -16.03198         6.24099
   C        4.39744       -15.65387         5.12509
   C        7.21129       -17.31293         7.03955
   C        8.21618       -18.01017         6.34741
   C        7.98279       -17.94115         4.85607
   C        9.14745       -17.24457         4.12916
   C        9.37011       -15.81737         4.61185
   C        7.77343       -19.34672         4.26104
   C        6.65031       -20.11861         4.94384
   C        9.20965       -18.66327         7.03268
   C        9.22086       -18.64583         8.43749
   C        8.22427       -17.92504         9.11021
   C        7.22693       -17.26101         8.42603
   C       10.24432       -19.40037         9.11781
   C       10.35415       -19.59127        10.44841
   C       11.35308       -20.39432        11.06507
   S       11.36887       -20.57830        12.79903
   C       12.74528       -21.64702        12.79200
   C       13.17570       -21.84875        11.48844
   C       12.38628       -21.14024        10.53727
   S       12.93796       -21.41098         8.91263
   C       14.19877       -22.45060         9.50919
   C       14.21251       -22.59273        10.84901
   C       13.20700       -22.14090        14.05440
   C       14.22819       -22.97083        14.26825
   H       12.60232        -6.69651        10.87516
   H       10.91711        -7.33325        10.50927
   H       14.55044        -7.32087         9.17405
   H       14.90521        -8.62585         6.98425
   H       14.69826        -9.92619         5.03773
   H       13.85152       -11.29640         3.03387
   H       11.76764       -12.11879         1.98152
   H        6.49317       -12.93271         6.25574
   H        5.52772       -13.30666         3.88958
   H        6.98297       -13.40697        -0.27903
   H        4.85978       -13.23092         1.93135
   H        4.72266       -13.70066        -0.97554
   H        0.28709       -14.74279         1.84744
   H        2.40566       -14.64679         3.44430
   H        4.63702       -15.81903         1.71438
   H        6.33785       -16.99265         2.68580
   H        4.77402       -15.76000         7.22838
   H        3.49147       -15.08143         5.25532
   H        8.93536       -17.23376         3.05742
   H       10.05652       -17.82933         4.28442
   H        8.47706       -15.22037         4.44399
   H       10.19789       -15.35994         4.07399
   H        9.59932       -15.79977         5.67498
   H        8.70661       -19.90682         4.35262
   H        7.54796       -19.24517         3.19701
   H        6.86548       -20.25515         6.00130
   H        6.53816       -21.09891         4.48646
   H        5.70613       -19.58588         4.85241
   H        9.97895       -19.21077         6.50642
   H        8.23095       -17.88849        10.18843
   H        6.46518       -16.71714         8.96503
   H       10.96833       -19.87754         8.47011
   H        9.65084       -19.13924        11.13314
   H       14.86296       -22.89823         8.79527
   H       14.93065       -23.20224        11.36402
   H       12.63611       -21.77983        14.90126
   H       14.83213       -23.36727        13.47330
   H       14.48671       -23.28053        15.26522
*
