# ORCA input file
# SCF done       -196.691084733739          0.000688660607
! CAM-B3LYP def2-SVP def2/J RIJCOSX Grid4 TightSCF
%maxcore 5000
%tddft
    Mode sTDDFT
    Ethresh 5.0
    maxcore 5000
end

%pal
  nprocs 6
  end
* xyz 0 1
   C       -9.13902         6.00826         3.47900
   C       -8.70413         6.34296         4.74971
   C       -9.43786         7.28408         5.47602
   C       -9.00515         7.65058         6.77396
   N       -8.64604         7.94311         7.82129
   C      -10.59592         7.87780         4.94011
   C      -11.32149         8.82533         5.69968
   N      -11.92395         9.59522         6.29683
   C      -11.02767         7.53675         3.65569
   C      -10.29296         6.61184         2.94826
   C      -10.52943         6.11379         1.56542
   O      -11.40869         6.49876         0.82755
   C       -9.42492         5.17137         1.30397
   C       -8.61344         5.07018         2.48842
   C       -7.58821         4.17787         2.71100
   C       -6.80388         4.14212         3.87965
   N       -6.11710         4.07527         4.79784
   C       -7.22733         3.15095         1.82170
   N       -6.91806         2.26603         1.15503
   C       -9.08523         4.60065         0.09222
   C       -9.84994         4.50164        -1.07014
   O      -11.17456         4.81962        -1.07951
   C      -11.61965         4.71963        -2.32274
   C      -10.63631         4.32905        -3.17955
   C       -9.47023         4.14998        -2.39011
   N       -8.28115         3.76463        -2.91217
   C       -7.15999         3.25933        -2.30198
   C       -6.00433         3.12049        -2.97968
   C       -4.76949         2.56694        -2.48890
   C       -3.63939         2.68199        -3.26877
   C       -2.41150         2.14810        -2.83180
   C       -1.15730         2.13442        -3.42527
   C       -0.79525         2.74663        -4.73548
   C        0.42795         3.69283        -4.63181
   N        0.50356         4.70067        -5.66603
   C       -0.57719         1.66054        -5.80372
   N       -1.86219         1.08750        -6.16434
   C       -0.28495         1.39790        -2.53726
   C        1.01424         1.06071        -2.62666
   C        1.70312         0.28633        -1.55043
   C        0.82125        -0.13196        -0.42039
   C       -0.47890         0.20347        -0.34802
   C       -1.07904         0.97646        -1.37160
   C       -2.36204         1.44322        -1.55721
   C       -3.53738         1.34573        -0.77446
   C       -4.69310         1.89386        -1.22231
   C        2.88789         1.10962        -1.10647
   C        3.00941         1.66247         0.10232
   C        4.14576         2.43521         0.51433
   O        5.12689         2.74612        -0.36409
   C        6.06814         3.43010         0.29757
   C        5.73898         3.58274         1.60795
   C        4.48266         2.93777         1.76519
   N        3.73424         2.80476         2.91417
   C        4.17004         3.02687         4.15959
   C        3.39547         2.84394         5.27200
   C        3.80784         3.03647         6.59566
   C        5.05805         3.17082         7.16080
   C        5.13195         3.78152         8.50687
   O        4.20973         4.04872         9.24435
   C        6.57309         4.03576         8.75047
   C        7.16952         4.67248         9.81634
   C        8.55829         4.82159         9.80052
   C        9.30757         4.33534         8.71312
   C        8.69133         3.67978         7.64402
   C        7.31698         3.52484         7.67075
   C        6.39638         2.86455         6.73619
   C        6.80102         1.93539         5.80385
   C        5.92229         1.11009         5.08240
   N        5.24117         0.41619         4.46996
   C        8.14547         1.65309         5.49403
   N        9.21930         1.40113         5.17393
   C       10.71238         4.51550         8.69840
   N       11.84796         4.66100         8.67278
   C        9.21280         5.46731        10.87625
   N        9.72529         5.99237        11.75574
   H       -7.82022         5.91017         5.19075
   H      -11.91192         7.98553         3.22918
   H       -8.08170         4.21289         0.01340
   H      -12.65556         4.94061        -2.49217
   H      -10.72117         4.16936        -4.23477
   H       -8.22713         3.82609        -3.92229
   H       -7.27090         2.94762        -1.27720
   H       -5.97434         3.47459        -4.00485
   H       -3.69332         3.18290        -4.22514
   H       -1.64835         3.34728        -5.07113
   H        1.35369         3.11493        -4.67760
   H        0.39713         4.20966        -3.66860
   H        0.53224         4.27283        -6.58538
   H       -0.30744         5.30906        -5.63259
   H        0.14593         0.91882        -5.42441
   H       -0.15561         2.11068        -6.70880
   H       -2.29895         0.67801        -5.34414
   H       -1.74703         0.35488        -6.85581
   H        1.62975         1.35041        -3.46590
   H        2.11865        -0.62324        -2.01590
   H        1.28908        -0.73630         0.34235
   H       -1.08842        -0.12197         0.48269
   H       -3.50450         0.83245         0.17493
   H       -5.58258         1.81307        -0.62099
   H        3.66154         1.26197        -1.84533
   H        2.23701         1.52069         0.84487
   H        6.92257         3.75732        -0.26028
   H        6.31364         4.09293         2.35202
   H        2.82669         2.36780         2.80957
   H        5.16760         3.43175         4.24212
   H        2.35874         2.57124         5.12503
   H        3.00716         3.16041         7.31954
   H        6.57995         5.04517        10.64006
   H        9.29889         3.32228         6.82780
*
