# ORCA input file
# SCF done       -215.128138579253          0.000955109747
! CAM-B3LYP def2-SVP def2/J RIJCOSX Grid4 TightSCF
%maxcore 5000
%tddft
    Mode sTDDFT
    Ethresh 5.0
    maxcore 5000
end

%pal
  nprocs 6
  end
* xyz 0 1
   C        0.18861        -6.95828        -8.65034
   S       -0.32849        -8.35959        -7.78167
   C        0.90764        -9.39878        -8.46988
   C        1.65771        -8.63549        -9.32542
   C        1.25434        -7.28052        -9.42412
   O        2.09238        -6.66483       -10.30234
   C        2.97141        -7.60789       -10.71894
   S        4.16372        -7.33305       -11.76540
   O        2.72929        -8.80882       -10.14123
   C        1.03996       -10.78574        -8.17235
   C        0.26812       -11.43500        -7.28511
   C        0.39299       -12.83128        -6.93769
   C        0.22144       -13.23070        -5.60564
   C       -0.12869       -12.40805        -4.42464
   O       -0.34741       -11.22336        -4.36932
   N       -0.16326       -13.29498        -3.34454
   C        0.14564       -14.60817        -3.72623
   O        0.18377       -15.54852        -2.97679
   C        0.39314       -14.55157        -5.18237
   C        0.74105       -15.56054        -6.05903
   C        0.85970       -15.19300        -7.39461
   C        0.67721       -13.87988        -7.84095
   C        0.68574       -13.75727        -9.31086
   O        0.42447       -12.80963        -9.99103
   S        1.09628       -15.35609       -10.03710
   C        1.16111       -16.17991        -8.44886
   O        1.40513       -17.34053        -8.30855
   C       -0.47025       -13.01019        -2.01660
   C       -0.77735       -11.80435        -1.52711
   C       -1.10557       -11.51987        -0.14535
   C       -1.06896       -12.46540         0.85721
   C       -1.41942       -12.11557         2.17393
   C       -1.46594       -12.87619         3.34094
   C       -1.04175       -14.29637         3.48742
   C        0.13900       -14.42351         4.46923
   N        0.70771       -15.75949         4.39081
   C       -2.18932       -15.22655         3.91859
   N       -3.25172       -15.19590         2.92867
   C       -1.92910       -11.99645         4.38881
   C       -2.21621       -12.21635         5.68616
   C       -2.68071       -11.11781         6.58437
   C       -2.74049        -9.77136         5.95142
   C       -2.49710        -9.57608         4.63915
   C       -2.11382       -10.65836         3.81495
   C       -1.81535       -10.74827         2.46273
   C       -1.83437        -9.79506         1.42506
   C       -1.48829       -10.17748         0.16583
   C       -1.79512       -11.17519         7.80901
   C       -1.95652       -12.11963         8.72454
   C       -1.00952       -12.45440         9.78359
   C       -0.40547       -13.71034         9.73964
   C       -0.53745       -14.74139         8.69731
   O       -1.20674       -14.70159         7.68859
   N        0.29607       -15.78503         9.08996
   C        0.95405       -15.51025        10.30883
   O        1.71885       -16.25895        10.85214
   C        0.50597       -14.15669        10.70356
   C        0.86051       -13.36110        11.77756
   C        0.27321       -12.10043        11.83099
   C       -0.63322       -11.64636        10.86229
   C       -1.16069       -10.29639        11.10520
   O       -1.94624        -9.67569        10.45006
   S       -0.42551        -9.65296        12.61820
   C        0.54704       -11.13726        12.91067
   O        1.28051       -11.27177        13.84370
   C        0.51845       -16.97409         8.40558
   C        0.01995       -17.25870         7.19362
   C        0.28013       -18.48570         6.51419
   S       -0.35411       -18.76790         4.90836
   C        0.33722       -20.37373         4.76335
   C        1.02023       -20.63031         5.92225
   C        0.99159       -19.59738         6.88270
   O        1.71179       -20.01584         7.96327
   C        2.15949       -21.25795         7.66620
   S        3.06267       -22.15412         8.65531
   O        1.75743       -21.65556         6.43786
   C        0.17997       -21.21232         3.61085
   C       -0.50039       -20.87028         2.52001
   H       -0.31682        -6.02308        -8.53303
   H        1.83273       -11.28660        -8.70989
   H       -0.45091       -10.87202        -6.70382
   H        0.89243       -16.58003        -5.74300
   H       -0.43501       -13.90626        -1.41205
   H       -0.79981       -10.95795        -2.19720
   H       -0.77987       -13.48163         0.64104
   H       -0.69239       -14.64687         2.50950
   H       -0.21235       -14.27298         5.49203
   H        0.86821       -13.62767         4.23966
   H        1.08189       -15.92924         3.46241
   H        1.47031       -15.85573         5.05234
   H       -2.60950       -14.88644         4.86613
   H       -1.75256       -16.22676         4.07429
   H       -2.92526       -15.57599         2.04620
   H       -4.03702       -15.75767         3.23609
   H       -2.10606       -13.18472         6.14974
   H       -3.69934       -11.38264         6.90981
   H       -3.01252        -8.95429         6.60163
   H       -2.57823        -8.59037         4.20485
   H       -2.12516        -8.77679         1.63601
   H       -1.50140        -9.45831        -0.63990
   H       -0.96393       -10.48740         7.83778
   H       -2.77556       -12.82301         8.63111
   H        1.55508       -13.68505        12.53608
   H        1.15529       -17.65743         8.95231
   H       -0.60182       -16.55802         6.66058
   H        0.66934       -22.17413         3.68913
   H       -0.98625       -19.91148         2.44476
   H       -0.58939       -21.53469         1.67997
*
