# ORCA input file
# SCF done       -200.104816995546          0.000696648335
! CAM-B3LYP def2-SVP def2/J RIJCOSX Grid4 TightSCF
%maxcore 5000
%tddft
    Mode sTDDFT
    Ethresh 5.0
    maxcore 5000
end

%pal
  nprocs 6
  end
* xyz 0 1
   C        0.22815        -0.59444         2.77287
   C        0.26758        -0.95462         4.11120
   C       -0.50789        -1.99935         4.59562
   C       -1.34140        -2.71946         3.75367
   C       -1.38966        -2.36998         2.41364
   C       -0.60603        -1.30075         1.92012
   C       -0.86629        -1.14245         0.49724
   C       -0.18247        -0.33284        -0.36768
   C        0.89220         0.50051         0.01095
   N        1.76996         1.19753         0.25595
   C       -0.42064        -0.26086        -1.75643
   N       -0.56867        -0.17543        -2.89206
   C       -1.98074        -2.03187         0.17496
   C       -2.13891        -2.94367         1.30786
   C       -2.66602        -4.20465         1.26944
   C       -3.16893        -4.83686         0.11229
   N       -3.54057        -5.44714        -0.78707
   C       -2.68893        -5.07792         2.37830
   N       -2.74200        -5.82791         3.24505
   C       -2.76296        -1.92784        -0.93141
   C       -4.05667        -2.50447        -1.10494
   C       -5.01454        -2.63300        -0.13110
   C       -6.18511        -3.22977        -0.71212
   C       -7.38494        -3.46238        -0.03024
   N       -8.36216        -3.67096         0.53552
   C       -5.91277        -3.54380        -2.02401
   C       -4.58979        -3.10393        -2.33379
   C       -3.92864        -3.31105        -3.53345
   C       -4.28426        -4.37528        -4.51784
   C       -3.54082        -4.13687        -5.65639
   C       -2.70195        -3.01155        -5.41707
   C       -2.89869        -2.54645        -4.12337
   C       -1.81396        -2.47898        -6.36281
   N       -1.09832        -2.06608        -7.15921
   C       -5.05558        -5.50708        -4.20533
   C       -5.40722        -6.48301        -5.10238
   C       -6.19117        -7.60256        -4.78813
   N       -6.48147        -8.55913        -5.74085
   C       -7.27121        -9.50956        -5.18029
   C       -7.93906       -10.69145        -5.42039
   C       -8.58596       -11.03228        -4.20942
   N       -8.30501       -10.07367        -3.25934
   C       -7.49830        -9.13233        -3.81760
   C       -6.82509        -7.95463        -3.57094
   C       -9.40433       -12.15702        -4.00825
   C      -10.14106       -12.43066        -2.88841
   C      -10.94748       -13.57927        -2.74110
   C      -10.86079       -14.75554        -3.45645
   C      -11.73943       -15.71074        -2.86708
   C      -11.91184       -17.03621        -3.28683
   N      -12.03823       -18.13636        -3.58901
   C      -12.36940       -15.14055        -1.77376
   C      -11.94459       -13.79487        -1.65953
   C      -12.44792       -12.83343        -0.80194
   C      -13.16173       -13.04888         0.47723
   C      -13.59163       -11.81972         0.91600
   C      -13.19607       -10.82630        -0.03939
   C      -12.47835       -11.43169        -1.05034
   C      -13.49477        -9.46030         0.04679
   N      -13.72325        -8.33720         0.11306
   C      -13.27195       -14.29220         1.14933
   C      -13.97438       -14.51379         2.29307
   C      -14.07116       -15.78318         2.92214
   C      -14.07243       -17.00015         2.30031
   C      -13.72882       -18.27310         2.92758
   C      -13.69299       -18.55415         4.26632
   C      -14.03185       -17.65279         5.29770
   N      -14.29492       -16.97567         6.18676
   C      -13.35184       -19.81607         4.79880
   N      -13.08550       -20.81501         5.29694
   C      -13.41978       -19.20131         1.84728
   C      -13.73854       -18.59057         0.61228
   C      -13.50862       -19.24634        -0.58576
   C      -12.96109       -20.51974        -0.54481
   C      -12.66131       -21.12869         0.66582
   C      -12.88586       -20.48013         1.87155
   C      -14.30631       -17.28089         0.88582
   C      -15.13908       -16.58798         0.04900
   C      -15.42175       -16.97542        -1.27876
   N      -15.66921       -17.21726        -2.37289
   C      -15.86655       -15.43748         0.42161
   N      -16.51475       -14.52273         0.66623
   H        0.83114         0.22374         2.41465
   H        0.90940        -0.40907         4.78575
   H       -0.46513        -2.25513         5.64309
   H       -1.94570        -3.52274         4.14311
   H       -2.42638        -1.27627        -1.72267
   H       -4.94667        -2.29666         0.88788
   H       -6.61642        -3.95046        -2.72471
   H       -3.52603        -4.71502        -6.56052
   H       -2.40859        -1.68231        -3.72025
   H       -5.34969        -5.63078        -3.17474
   H       -5.08530        -6.39434        -6.13149
   H       -6.14281        -8.54092        -6.68773
   H       -7.99173       -11.26125        -6.32590
   H       -8.63002       -10.08757        -2.30828
   H       -6.77693        -7.39716        -2.65806
   H       -9.47191       -12.82924        -4.85094
   H      -10.12033       -11.73928        -2.05766
   H      -10.20931       -14.96558        -4.28301
   H      -13.15196       -15.61076        -1.21446
   H      -14.11950       -11.60178         1.82420
   H      -12.13653       -10.94365        -1.94309
   H      -12.72019       -15.12238         0.72924
   H      -14.42115       -13.68111         2.81684
   H      -14.09568       -15.76718         4.00402
   H      -13.72383       -18.78276        -1.53496
   H      -12.76399       -21.03589        -1.47120
   H      -12.24014       -22.12233         0.67364
   H      -12.63875       -20.96644         2.80091
*
