# ORCA input file
# SCF done       -165.105201902870          0.000927974847
! CAM-B3LYP def2-SVP def2/J RIJCOSX Grid4 TightSCF
%maxcore 5000
%tddft
    Mode sTDDFT
    Ethresh 5.0
    maxcore 5000
end

%pal
  nprocs 6
  end
* xyz 0 1
   C      -11.42546        -5.59317         0.55700
   C      -11.57149        -6.66412        -0.31108
   C      -10.49089        -7.15944        -1.02920
   C       -9.22738        -6.60551        -0.89140
   C       -9.06818        -5.53895        -0.02235
   C      -10.16966        -5.02142         0.69872
   C       -9.72516        -3.88763         1.49252
   C      -10.45262        -3.21495         2.43330
   C      -11.78984        -3.52154         2.76852
   N      -12.87908        -3.71072         3.07462
   C       -9.96183        -2.14757         3.21468
   N       -9.61631        -1.27687         3.87873
   C       -8.34801        -3.60314         1.07766
   C       -7.88405        -4.77443         0.32745
   C       -6.58825        -5.17032         0.16568
   C       -5.49059        -4.50061         0.74491
   N       -4.58687        -4.02155         1.26438
   C       -6.20742        -6.36797        -0.48055
   N       -5.84622        -7.33698        -0.97541
   C       -7.72921        -2.40783         1.22890
   C       -6.57749        -1.93183         0.50683
   C       -5.56425        -1.16027         1.05608
   C       -5.24610        -0.77869         2.43722
   O       -4.41530         0.07896         2.64050
   C       -5.96130        -1.50104         3.54606
   S       -4.42644        -0.64844        -0.13539
   C       -5.31334        -1.41621        -1.36704
   C       -6.42747        -2.06385        -0.90945
   C       -7.43105        -2.67031        -1.80380
   S       -6.92101        -4.13431        -2.86208
   C       -7.51564        -2.90951        -3.96495
   C       -7.77737        -1.94239        -3.07508
   C       -8.35948        -0.59977        -3.10474
   O       -8.00123         0.30884        -2.39131
   O       -9.35425        -0.52449        -3.99108
   C      -10.12730         0.66459        -4.01809
   C      -10.29323         1.38835        -2.71371
   C      -10.70721         0.86056        -1.50722
   C      -10.87566        -0.52739        -1.07262
   O      -10.35557        -1.47072        -1.63286
   C      -11.72703        -0.70523         0.15998
   S      -10.96798         2.11672        -0.33147
   C      -10.56356         3.32306        -1.45102
   C      -10.22195         2.81383        -2.67954
   C       -9.75396         3.62539        -3.77991
   C      -10.25746         4.81143        -4.18271
   C       -9.56968         5.74725        -5.08005
   C       -8.62999         5.42908        -6.01671
   C       -8.22342         4.10815        -6.30977
   N       -7.89266         3.04903        -6.60227
   C       -8.00487         6.37392        -6.86054
   N       -7.46585         7.09862        -7.56713
   C      -10.13352         7.06067        -4.81590
   C      -11.25915         6.91528        -3.96997
   C      -11.98356         8.02538        -3.56471
   C      -11.57999         9.27579        -4.00683
   C      -10.47910         9.41905        -4.84142
   C       -9.74596         8.31751        -5.25510
   C      -11.45893         5.50127        -3.70231
   C      -12.62034         4.90941        -3.29673
   C      -13.76893         5.62732        -2.89719
   N      -14.71934         6.16582        -2.54826
   C      -12.84155         3.51600        -3.32487
   N      -13.08826         2.39725        -3.39440
   H      -12.27780        -5.21541         1.09795
   H      -12.54495        -7.11345        -0.43448
   H      -10.63536        -7.98577        -1.70803
   H       -8.39572        -6.98469        -1.46264
   H       -8.19303        -1.67485         1.87384
   H       -6.03883        -2.56256         3.32629
   H       -6.96154        -1.08995         3.67695
   H       -5.41146        -1.35217         4.47188
   H       -4.98889        -1.35398        -2.38747
   H       -8.34443        -2.94249        -1.27547
   H       -7.58568        -2.99113        -5.03104
   H      -11.11412         0.35124        -4.37805
   H       -9.68776         1.34404        -4.75793
   H      -11.21265        -0.29821         1.03009
   H      -11.92157        -1.76338         0.31783
   H      -12.67081        -0.17693         0.04814
   H      -10.54131         4.35170        -1.14542
   H       -8.85304         3.26230        -4.25704
   H      -12.83590         7.92724        -2.91197
   H      -12.13081        10.14985        -3.69541
   H      -10.18581        10.40318        -5.17286
   H       -8.89043         8.44487        -5.89815
*
