# ORCA input file
# SCF done       -174.560647499905          0.000863983650
! CAM-B3LYP def2-SVP def2/J RIJCOSX Grid4 TightSCF
%maxcore 5000
%tddft
    Mode sTDDFT
    Ethresh 5.0
    maxcore 5000
end

%pal
  nprocs 6
  end
* xyz 0 1
   C       -4.24475         1.21272         3.39846
   C       -4.58979         2.55591         3.33846
   N       -3.75889         3.48044         2.90060
   C       -2.54656         3.08491         2.50626
   N       -2.12379         1.81938         2.52652
   C       -2.96243         0.90285         2.96565
   C       -1.62204         4.10689         2.02436
   C       -2.04887         5.43636         1.92902
   C       -1.16712         6.39220         1.48355
   C        0.13330         6.02674         1.09106
   C        0.55917         4.70965         1.18470
   C       -0.32050         3.75695         1.65944
   C        0.80958         7.20264         0.57983
   C       -0.07602         8.28861         0.64686
   C       -1.37964         7.87795         1.29817
   C       -1.45903         8.61878         2.65364
   C       -2.62049         8.22625         3.55720
   C       -2.59481         8.18422         0.41122
   C       -2.46742         7.56577        -0.97633
   C        0.29911         9.52723         0.18190
   C        1.57685         9.70208        -0.35729
   C        2.45581         8.61822        -0.40179
   C        2.08315         7.36930         0.05793
   C        1.98444        11.01015        -0.88365
   C        3.23345        11.51105        -0.64191
   C        3.60796        12.77082        -1.16685
   C        4.79107        13.48482        -1.07138
   C        6.00092        13.03486        -0.31270
   C        7.08061        12.44711        -1.24395
   N        7.56924        13.43017        -2.19809
   C        6.59210        14.12516         0.59156
   N        5.57251        14.60786         1.50947
   C        4.60416        14.70188        -1.83275
   C        5.42504        15.73034        -2.12199
   C        4.96863        16.90487        -2.91685
   C        3.59062        16.78311        -3.48517
   C        2.78381        15.74364        -3.20334
   C        3.23536        14.68636        -2.37976
   C        2.64459        13.50890        -1.97121
   C        1.36114        12.96209        -2.20271
   C        1.04697        11.75509        -1.66963
   C        4.97970        18.11366        -2.00794
   C        5.72258        19.19682        -2.22312
   C        5.74122        20.41403        -1.42713
   C        6.72715        21.37085        -1.70223
   C        6.76399        22.54137        -0.98372
   C        5.81523        22.79126         0.02008
   C        4.83470        21.85282         0.30226
   C        4.80659        20.67578        -0.42054
   C        6.08186        24.09764         0.59056
   C        7.19660        24.64869        -0.06203
   C        7.72817        23.69773        -1.10831
   C        7.68262        24.32361        -2.51421
   C        6.28454        24.78120        -2.91212
   C        9.16922        23.26043        -0.78426
   C        9.29893        22.62606         0.59530
   C        7.66226        25.89614         0.28002
   C        7.01702        26.61223         1.29317
   C        5.91354        26.05476         1.94054
   C        5.43783        24.80325         1.59444
   C        7.49721        27.94222         1.66681
   C        7.95947        28.86587         0.72550
   N        8.40181        30.06461         1.05910
   C        8.37964        30.37307         2.34312
   N        7.96110        29.59377         3.32428
   C        7.53133        28.39088         2.99004
   H       -4.92685         0.46022         3.75763
   H       -5.56479         2.90876         3.65294
   H       -2.58984        -0.11458         2.96881
   H       -3.06755         5.66837         2.19448
   H        1.55868         4.43265         0.88398
   H       -0.02469         2.72329         1.74608
   H       -1.51457         9.68976         2.44406
   H       -0.52253         8.43716         3.18801
   H       -3.57733         8.39211         3.06868
   H       -2.59416         8.83331         4.46054
   H       -2.54933         7.18217         3.84893
   H       -2.70134         9.26756         0.31977
   H       -3.49402         7.79592         0.89070
   H       -1.58647         7.94651        -1.48904
   H       -3.34427         7.80119        -1.57555
   H       -2.37927         6.48396        -0.90411
   H       -0.37565        10.36892         0.24255
   H        3.43736         8.75891        -0.83101
   H        2.77083         6.53821         0.00354
   H        3.93025        10.95713        -0.02976
   H        5.67964        12.22360         0.34833
   H        6.65862        11.55217        -1.73214
   H        7.92921        12.12910        -0.63143
   H        6.84401        13.63270        -2.87889
   H        8.36697        13.05705        -2.70120
   H        7.04318        14.91373        -0.02577
   H        7.39165        13.68248         1.19424
   H        4.78198        14.96942         0.98478
   H        5.94018        15.35973         2.08214
   H        6.44883        15.76517        -1.78044
   H        5.68897        17.08501        -3.72627
   H        3.26279        17.60174        -4.10790
   H        1.78647        15.69213        -3.61698
   H        0.64839        13.50857        -2.80366
   H        0.07795        11.31445        -1.85445
   H        4.30448        18.04088        -1.16829
   H        6.39678        19.20403        -3.07223
   H        7.45357        21.17761        -2.47934
   H        4.09906        22.03820         1.07085
   H        4.03557        19.95069        -0.21068
   H        8.04199        23.58737        -3.23637
   H        8.36517        25.17584        -2.54066
   H        5.59208        23.94226        -2.91324
   H        6.30199        25.21537        -3.90916
   H        5.91249        25.53028        -2.21656
   H        9.82209        24.13393        -0.84448
   H        9.49616        22.54636        -1.54322
   H        8.99695        23.32676         1.37068
   H       10.33075        22.33470         0.77770
   H        8.67193        21.74035         0.67138
   H        8.52931        26.31838        -0.20702
   H        5.41012        26.62404         2.70832
   H        4.57804        24.38777         2.09825
   H        7.95786        28.63983        -0.33381
   H        8.73692        31.35688         2.61744
   H        7.21820        27.75474         3.80873
*
