# ORCA input file
# SCF done       -252.557760532416          0.000942859718
! CAM-B3LYP def2-SVP def2/J RIJCOSX Grid4 TightSCF
%maxcore 5000
%tddft
    Mode sTDDFT
    Ethresh 5.0
    maxcore 5000
end

%pal
  nprocs 6
  end
* xyz 0 1
   C       -2.44303         9.59456         8.83331
   C       -3.30676        10.41411         9.51780
   C       -3.90992        10.07338        10.74536
   N       -4.42872         9.85989        11.74746
   C       -3.74423        11.68274         9.08657
   N       -4.16153        12.71047         8.78700
   C       -2.07021         8.24122         9.23901
   C       -1.25227         7.67606         8.21938
   C       -0.75446         6.40893         8.30758
   C       -1.05609         5.63022         9.44770
   C       -1.87004         6.18768        10.47480
   C       -2.37244         7.50512        10.35245
   C       -2.16396         5.40287        11.60760
   C       -1.67885         4.12802        11.72199
   C       -0.87733         3.58042        10.70996
   C       -0.57255         4.31599         9.59657
   C       -1.07439         8.66412         7.14616
   O       -0.44179         8.50174         6.11307
   C       -1.78882         9.86895         7.57178
   C       -1.77685        11.08610         6.92237
   C       -1.21660        11.44731         5.69974
   S       -0.42296        10.38081         4.58090
   C       -0.17162        11.63497         3.41899
   C       -0.66241        12.87405         3.88210
   C       -1.25709        12.77188         5.17205
   C       -1.78823        13.91320         5.77119
   C       -1.73889        15.13418         5.10892
   C       -2.30572        16.28373         5.81266
   O       -2.66417        16.29403         6.96232
   C       -2.45448        17.59881         4.98689
   F       -3.13233        17.40924         3.84063
   F       -3.10576        18.53191         5.67478
   F       -1.26192        18.12230         4.64643
   C       -1.15077        15.22626         3.82633
   C       -0.62110        14.11723         3.22818
   C        0.44565        11.38343         2.17360
   C        0.89347        10.15656         1.80061
   C        1.47695         9.79076         0.54554
   C        1.69179        10.68970        -0.48123
   C        2.21032        10.25436        -1.71290
   C        2.47064        10.93786        -2.89587
   C        2.34887        12.39531        -3.18205
   C        0.90206        12.90032        -3.00849
   N        0.69558        14.04389        -3.87373
   C        3.34065        13.20144        -2.31992
   N        3.34301        14.60006        -2.71766
   C        2.93400         9.95486        -3.84723
   C        3.25465        10.06505        -5.14908
   C        3.71761         8.89448        -5.94232
   C        3.74972         7.59680        -5.18575
   C        3.40886         7.50434        -3.88779
   C        2.98072         8.64902        -3.17438
   C        2.52878         8.84026        -1.88648
   C        2.33276         7.94403        -0.80879
   C        1.82531         8.40798         0.35783
   C        5.10471         9.09763        -6.48692
   C        5.96299        10.01690        -6.02165
   C        7.28628        10.20793        -6.50940
   S        8.02316         9.13784        -7.63588
   C        9.49582        10.06779        -7.70842
   C        9.40679        11.19150        -6.87445
   C        8.15416        11.26972        -6.18705
   C        7.89155        12.33377        -5.31757
   C        8.85052        13.31223        -5.12956
   C        8.65934        14.46021        -4.25384
   O        9.46414        15.33593        -4.05209
   C        7.28609        14.55239        -3.52179
   F        6.24491        14.59985        -4.37801
   F        7.05776        13.49636        -2.71735
   F        7.20499        15.64009        -2.76255
   C       10.09614        13.22705        -5.81417
   C       10.37248        12.19799        -6.66125
   C       10.57234         9.66226        -8.51702
   C       10.57325         8.52411        -9.26976
   C       11.67453         8.14082       -10.05665
   C       11.73388         6.99358       -10.80328
   C       12.84266         6.54670       -11.62206
   C       14.02133         7.21160       -11.85244
   C       15.06341         6.71693       -12.66393
   N       15.95058         6.37631       -13.30850
   C       14.37008         8.47352       -11.33007
   N       14.72898         9.49612       -10.94794
   C       12.48758         5.24574       -12.18106
   C       11.17858         4.90249       -11.73812
   C       10.65435         5.97699       -10.87846
   O        9.56369         6.00473       -10.34294
   C       10.57675         3.73197       -12.09912
   C       11.27017         2.83008       -12.93675
   C       12.58040         3.16486       -13.38458
   C       13.17734         4.38600       -12.99429
   C       13.26498         2.25728       -14.21812
   C       12.68510         1.07547       -14.59182
   C       11.39488         0.74692       -14.14999
   C       10.70229         1.60588       -13.34033
   H       -0.13824         6.00449         7.51823
   H       -2.98331         7.89683        11.14992
   H       -2.78213         5.82842        12.38444
   H       -1.91070         3.53477        12.59383
   H       -0.50240         2.57336        10.81624
   H        0.04449         3.89983         8.81342
   H       -2.27202        11.90119         7.43275
   H       -2.25289        13.88377         6.74540
   H       -1.09961        16.17070         3.31141
   H       -0.16768        14.19734         2.25301
   H        0.53659        12.22576         1.50325
   H        0.78217         9.35105         2.51671
   H        1.44452        11.73059        -0.35231
   H        2.60407        12.57263        -4.23150
   H        0.71608        13.11725        -1.94472
   H        0.20744        12.11089        -3.31561
   H        1.34619        14.77620        -3.60150
   H       -0.24923        14.39920        -3.77733
   H        4.33340        12.72469        -2.39697
   H        3.03904        13.15348        -1.27079
   H        3.73461        14.69761        -3.64968
   H        3.92124        15.14389        -2.08571
   H        3.19060        11.00629        -5.67852
   H        3.03967         8.78072        -6.80318
   H        4.08045         6.73404        -5.74267
   H        3.44363         6.55214        -3.37872
   H        2.58170         6.90057        -0.93311
   H        1.66090         7.73467         1.18628
   H        5.41081         8.41613        -7.26899
   H        5.64589        10.68672        -5.23446
   H        6.94108        12.36516        -4.81248
   H       10.81413        14.01226        -5.63676
   H       11.32071        12.14982        -7.17232
   H       11.44640        10.30094        -8.52300
   H        9.70488         7.88018        -9.26383
   H       12.52690         8.80781       -10.05444
   H        9.58226         3.49703       -11.74932
   H       14.17099         4.60712       -13.34991
   H       14.25813         2.51461       -14.55600
   H       13.21782         0.38690       -15.23042
   H       10.95262        -0.19004       -14.45409
   H        9.70845         1.35839       -12.99666
*
