# ORCA input file
# SCF done       -216.054753636881          0.000377355470
! CAM-B3LYP def2-SVP def2/J RIJCOSX Grid4 TightSCF
%maxcore 5000
%tddft
    Mode sTDDFT
    Ethresh 5.0
    maxcore 5000
end

%pal
  nprocs 6
  end
* xyz 0 1
   C        1.70677         5.14911         2.60833
   C        1.01376         4.47312         3.57140
   C        1.33346         4.51210         4.94898
   N        1.50245         4.57035         6.08152
   C       -0.09268         3.63684         3.31951
   N       -0.93981         2.87410         3.17733
   C        2.96415         5.85482         2.78941
   C        3.36519         6.41882         1.54182
   C        4.52924         7.12428         1.41094
   C        5.36032         7.29689         2.53852
   C        4.97248         6.72423         3.78616
   C        3.76419         5.99998         3.89344
   C        5.81653         6.89575         4.90254
   C        6.98453         7.60067         4.79505
   C        7.36358         8.16603         3.56772
   C        6.56950         8.01675         2.46328
   C        2.37275         6.10206         0.51252
   O        2.39555         6.42192        -0.65801
   C        1.30506         5.31867         1.21299
   C        0.11104         5.01743         0.67204
   C       -0.26132         5.38174        -0.68677
   C        0.46474         5.01415        -1.81878
   C        1.66456         4.14494        -1.93568
   O        2.22263         3.49722        -1.09240
   N        2.02523         4.18909        -3.28908
   C        1.14390         4.95487        -4.05351
   O        1.20432         5.14190        -5.23828
   C        0.12767         5.46329        -3.09393
   C       -0.97502         6.26613        -3.33163
   C       -1.73043         6.60755        -2.21716
   C       -1.37885         6.19222        -0.93249
   C       -2.23419         6.72904         0.14007
   O       -2.09700         6.58704         1.31954
   S       -3.55490         7.69321        -0.59698
   C       -2.93819         7.45609        -2.27427
   O       -3.45564         7.92882        -3.23757
   C        3.11554         3.45672        -3.75709
   C        3.66313         3.59099        -4.97129
   C        4.76534         2.81499        -5.47834
   O        5.59460         3.40568        -6.36678
   C        6.56091         2.53544        -6.67463
   C        6.38402         1.35252        -6.02491
   C        5.20098         1.51267        -5.25780
   N        4.56655         0.61884        -4.41725
   C        4.61251        -0.71651        -4.29778
   C        4.09584        -1.26662        -3.10151
   C        3.37124        -0.54774        -2.05156
   O        3.07670         0.62983        -2.04933
   N        3.07497        -1.48453        -1.06878
   C        3.55931        -2.76651        -1.41380
   O        3.46814        -3.73892        -0.72269
   C        4.19387        -2.60575        -2.75062
   C        4.81095        -3.52344        -3.58418
   C        5.22166        -3.03021        -4.81858
   C        5.09323        -1.69430        -5.21069
   C        5.31901        -1.47778        -6.64020
   O        5.03887        -0.52329        -7.30412
   S        6.01415        -2.98485        -7.36282
   C        5.79490        -3.91903        -5.85542
   O        6.07148        -5.07445        -5.74125
   C        2.38489        -1.26028         0.11184
   C        1.99339        -0.04853         0.54133
   C        1.31504         0.20029         1.77215
   C        0.44519        -0.60060         2.44173
   C       -0.15192        -0.28221         3.73010
   C        0.36415         0.58116         4.65883
   C       -0.21947         0.82517         5.92035
   N       -0.64992         1.05598         6.95850
   C        1.54891         1.32244         4.48562
   N        2.49879         1.96515         4.40657
   C       -1.32576        -1.12336         3.89847
   C       -1.39924        -2.02123         2.79484
   C       -0.27179        -1.77987         1.87860
   O       -0.02854        -2.38684         0.85831
   C       -2.39883        -2.94467         2.68296
   C       -3.39005        -3.01109         3.68736
   C       -3.33127        -2.10613         4.78706
   C       -2.28403        -1.16107         4.87684
   C       -4.33162        -2.17713         5.77804
   C       -5.33892        -3.09918         5.69158
   C       -5.39369        -3.99169         4.61046
   C       -4.44013        -3.94846         3.62977
   H        4.81201         7.54156         0.45571
   H        3.50015         5.57025         4.84650
   H        5.52064         6.45900         5.84470
   H        7.62394         7.72711         5.65560
   H        8.28813         8.71965         3.50189
   H        6.85648         8.44865         1.51571
   H       -0.66958         4.56708         1.27171
   H       -1.23322         6.61385        -4.31912
   H        3.48029         2.78660        -2.99117
   H        3.30583         4.35577        -5.64545
   H        7.31737         2.85928        -7.36093
   H        7.02818         0.50037        -6.06409
   H        3.97503         1.05692        -3.71313
   H        4.93097        -4.56294        -3.32853
   H        2.22967        -2.16870         0.67558
   H        2.25318         0.83427        -0.02636
   H        1.49377         1.18881         2.17798
   H       -2.43169        -3.61783         1.83903
   H       -2.26939        -0.48124         5.71392
   H       -4.28407        -1.48906         6.60918
   H       -6.09950        -3.14656         6.45643
   H       -6.19550        -4.71298         4.55819
   H       -4.47763        -4.63254         2.79454
*
