# ORCA input file
# SCF done       -212.268595348530          0.000693831516
! CAM-B3LYP def2-SVP def2/J RIJCOSX Grid4 TightSCF
%maxcore 5000
%tddft
    Mode sTDDFT
    Ethresh 5.0
    maxcore 5000
end

%pal
  nprocs 6
  end
* xyz 0 1
   C        1.26329         5.95441        -2.82204
   C        0.03636         5.68010        -2.28136
   C       -0.23442         4.41185        -1.74639
   C        0.72446         3.43566        -1.75925
   C        1.99801         3.68307        -2.31024
   C        2.98888         2.67443        -2.33497
   C        4.21313         2.94996        -2.88081
   C        4.49005         4.24850        -3.40028
   C        3.54961         5.23801        -3.39630
   C        2.27310         4.97251        -2.85127
   C        5.88358         4.29505        -3.87208
   O        6.46132         5.20448        -4.42222
   C        6.47749         2.98492        -3.46994
   C        5.39486         2.11323        -3.06507
   C        5.38652         0.74252        -3.09993
   C        6.48593        -0.03764        -3.50497
   N        7.35347        -0.70566        -3.85149
   C        4.24477        -0.04118        -2.83083
   N        3.34434        -0.72347        -2.63087
   C        7.83353         2.86581        -3.46199
   C        8.64200         1.92360        -2.78951
   C        8.32204         1.09567        -1.72267
   C        9.40572         0.33483        -1.30479
   C       10.57322         0.58393        -2.05279
   S       10.33262         1.76437        -3.25319
   C       11.61110        -0.24293        -1.55474
   C       11.09812        -1.01687        -0.49661
   C        9.69332        -0.68976        -0.31370
   C        8.80875        -1.23370         0.56992
   C        9.17023        -2.23777         1.49324
   N        9.45339        -3.04859         2.25221
   C        7.46189        -0.81377         0.61031
   N        6.37238        -0.45721         0.63818
   C       12.05510        -1.85496         0.07257
   C       13.28850        -1.72078        -0.54275
   S       13.26169        -0.55063        -1.85166
   C       14.52579        -2.37226        -0.24305
   C       14.73720        -3.28557         0.78575
   F       13.72610        -3.64073         1.59405
   C       15.98167        -3.87284         1.05115
   F       16.03875        -4.73208         2.08551
   C       17.13938        -3.61482         0.32478
   C       16.95120        -2.69773        -0.73960
   C       15.68694        -2.10192        -1.00618
   N       15.84124        -1.28882        -2.05913
   N       17.09978        -1.40545        -2.38030
   N       17.80963        -2.21409        -1.64818
   C       17.68050        -0.69708        -3.47785
   C       18.41880        -4.18818         0.59975
   C       19.57935        -3.91974        -0.10776
   C       20.67014        -4.61428         0.40179
   C       20.33705        -5.42134         1.50605
   S       18.68320        -5.32055         1.91274
   C       21.51101        -6.07995         1.94632
   C       22.58897        -5.68541         1.11924
   C       22.08976        -4.75545         0.11940
   C       22.78098        -4.13959        -0.88178
   C       24.15954        -4.33814        -1.11558
   N       25.27340        -4.47843        -1.34566
   C       22.15091        -3.24789        -1.77685
   N       21.64778        -2.52168        -2.50851
   C       23.79512        -6.27183         1.47626
   C       23.66317        -7.11957         2.56940
   S       21.98894        -7.17643         3.15026
   C       24.56936        -7.94528         3.26491
   C       25.92082        -8.11861         3.14359
   C       26.68370        -9.08147         3.92607
   C       26.19258       -10.03362         4.78277
   C       27.00047       -10.94100         5.50143
   N       27.58870       -11.70744         6.12154
   C       24.83554       -10.28395         5.07602
   N       23.76111       -10.57083         5.36545
   C       28.09543        -8.89977         3.60830
   C       28.20916        -7.87597         2.62739
   C       29.41468        -7.48694         2.11882
   C       30.59051        -8.11995         2.57878
   C       31.86326        -7.76765         2.08867
   C       32.98821        -8.39624         2.54948
   C       32.88924        -9.40375         3.52077
   C       31.66784        -9.76889         4.01800
   C       30.48837        -9.14340         3.56487
   C       29.22450        -9.52231         4.07278
   C       26.87314        -7.35853         2.29437
   O       26.63516        -6.47253         1.50017
   H        1.47784         6.92933        -3.23485
   H       -0.73160         6.43885        -2.26248
   H       -1.20770         4.21183        -1.32402
   H        0.51989         2.45679        -1.35134
   H        2.75967         1.71074        -1.90765
   H        3.77637         6.21268        -3.80223
   H        8.36046         3.65346        -3.99274
   H        7.35571         1.09338        -1.25270
   H       11.86674        -2.52438         0.89125
   H       17.48783         0.36996        -3.36999
   H       17.24021        -1.03877        -4.41534
   H       18.75042        -0.89466        -3.47466
   H       19.59281        -3.24710        -0.94449
   H       24.73977        -6.10356         0.99004
   H       24.08379        -8.53981         4.02993
   H       29.46738        -6.70746         1.37331
   H       31.93248        -6.99124         1.34090
   H       33.96018        -8.12091         2.16825
   H       33.78656        -9.88992         3.87321
   H       31.58674       -10.54462         4.76527
   H       29.18560       -10.29822         4.82024
*
