# ORCA input file
# SCF done       -203.444286081681          0.000622691868
! CAM-B3LYP def2-SVP def2/J RIJCOSX Grid4 TightSCF
%maxcore 5000
%tddft
    Mode sTDDFT
    Ethresh 5.0
    maxcore 5000
end

%pal
  nprocs 6
  end
* xyz 0 1
   C       -3.04960        -2.34918        -0.91484
   C       -1.72675        -2.07917        -0.67781
   C       -0.68251        -3.00589        -0.88384
   N        0.21076        -3.71194        -1.02925
   C       -1.20389        -0.85855        -0.20082
   N       -0.69685         0.09786         0.18271
   C       -3.57101        -3.62045        -1.40972
   C       -4.97920        -3.51953        -1.52776
   C       -5.76715        -4.55365        -1.97104
   C       -5.13369        -5.75131        -2.31738
   C       -3.72641        -5.84585        -2.19746
   C       -2.93112        -4.79821        -1.74796
   S       -3.14880        -7.41174        -2.67864
   C       -4.78210        -7.91133        -3.02983
   C       -5.71419        -6.95607        -2.79888
  Br       -5.10339        -9.64507        -3.66765
   C       -5.40094        -2.17404        -1.11036
   O       -6.54609        -1.75399        -1.08900
   C       -4.18018        -1.45562        -0.73257
   C       -4.12356        -0.15865        -0.28776
   C       -5.14799         0.77943        -0.09151
   C       -4.88244         2.07841         0.36411
   C       -6.02590         2.84420         0.47767
   C       -7.18865         2.12527         0.10707
   S       -6.87118         0.52525        -0.37438
   C       -8.30245         2.98676         0.24585
   C       -7.85391         4.24223         0.69950
   C       -6.40999         4.19478         0.86249
   C       -5.59424         5.20357         1.28276
   C       -4.19725         5.04521         1.40365
   N       -3.06173         4.92462         1.50363
   C       -6.10035         6.47571         1.62318
   N       -6.51755         7.50805         1.89729
   C       -8.89109         5.15775         0.85484
   C      -10.12253         4.61187         0.52391
   S       -9.99362         2.93944         0.01708
   C      -11.39991         5.25590         0.54776
   C      -11.58150         6.58373         0.91667
   C      -12.82696         7.20424         0.92012
   C      -13.99774         6.54954         0.55574
   C      -13.86249         5.18321         0.18012
   C      -12.57379         4.54152         0.17518
   N      -12.60286         3.27039        -0.19825
  Se      -14.24712         2.80214        -0.56900
   N      -14.86225         4.39584        -0.18973
   C      -15.28200         7.17945         0.54094
   C      -15.58403         8.49748         0.84922
   C      -16.94242         8.76902         0.71434
   C      -17.68219         7.64395         0.30254
   S      -16.70300         6.26286         0.08193
   C      -19.04417         8.01753         0.19529
   C      -19.16310         9.38172         0.53387
   C      -17.84847         9.89386         0.88119
   C      -17.54899        11.15585         1.30361
   C      -16.23219        11.54406         1.62671
   N      -15.15754        11.85349         1.87965
   C      -18.54932        12.14173         1.43744
   N      -19.37411        12.93270         1.53290
   C      -20.47152         9.84078         0.48213
   C      -21.36425         8.84269         0.11463
   S      -20.54104         7.31803        -0.20365
   C      -22.76019         8.91704        -0.07183
   C      -23.63793         9.86650         0.35791
   C      -23.55684        10.93773         1.32814
   C      -22.79872        10.95982         2.47059
   C      -22.87751        11.97647         3.44570
   N      -22.91043        12.77301         4.27079
   C      -21.92924         9.92214         2.85731
   N      -21.23030         9.08772         3.22288
   C      -24.63910        11.87112         1.03027
   C      -25.50623        11.27595         0.07921
   C      -24.96378         9.96291        -0.31672
   O      -25.45228         9.14774        -1.06445
   C      -26.64536        11.89865        -0.37029
   C      -26.93334        13.17238         0.13128
   C      -26.04956        13.76582         1.06514
   C      -24.90233        13.13248         1.52789
   S      -26.58828        15.34708         1.53918
   C      -27.97735        15.19098         0.49668
   C      -28.03547        14.01643        -0.17515
  Br      -29.21789        16.59286         0.39191
   H       -6.83723        -4.44175        -2.04842
   H       -1.86400        -4.92359        -1.67575
   H       -6.76760        -7.09379        -2.96105
   H       -3.14316         0.23321        -0.04520
   H       -3.88467         2.41206         0.58929
   H       -8.76039         6.16983         1.19002
   H      -10.72539         7.16884         1.21204
   H      -12.87460         8.23904         1.21912
   H      -14.85033         9.22066         1.15346
   H      -20.76963        10.85868         0.65502
   H      -23.19911         8.14899        -0.70196
   H      -27.29376        11.41972        -1.08700
   H      -24.25254        13.62505         2.23221
   H      -28.82185        13.75447        -0.85919
*
