# ORCA input file
# SCF done       -162.345998036770          0.000527100272
! CAM-B3LYP def2-SVP def2/J RIJCOSX Grid4 TightSCF
%maxcore 5000
%tddft
    Mode sTDDFT
    Ethresh 5.0
    maxcore 5000
end

%pal
  nprocs 6
  end
* xyz 0 1
   C       -0.47030         0.44667        -5.24746
   N        0.74126         0.29302        -5.64771
   C        1.44244        -0.40127        -4.73843
   C        0.74111        -0.79850        -3.59032
   S       -0.88653        -0.25101        -3.69510
   N        1.42735        -1.49030        -2.67876
   C        2.65800        -1.65916        -3.06210
   S        3.06890        -0.94351        -4.64383
   C        3.62394        -2.36020        -2.29739
   C        3.41230        -2.95456        -1.06447
   C        4.56810        -3.56553        -0.58502
   C        5.66384        -3.43093        -1.46237
   S        5.26662        -2.55481        -2.87168
   C        6.78741        -4.08043        -0.89835
   C        6.40012        -4.63127         0.34142
   C        4.99854        -4.32309         0.57954
   C        4.25296        -4.66845         1.66770
   C        4.79153        -5.40724         2.74325
   N        5.21949        -6.00837         3.62082
   C        2.89421        -4.31001         1.79936
   N        1.79071        -4.02466         1.92173
   C        7.43631        -5.29763         0.97995
   C        8.61459        -5.25831         0.24266
   S        8.42948        -4.37891        -1.26539
   C        9.86119        -5.83491         0.60348
   C       11.00583        -5.69650        -0.21136
   C       12.27666        -6.25891         0.14145
   N       13.32741        -6.07994        -0.68320
   C       13.17806        -5.40775        -1.77860
   C       11.91987        -4.85243        -2.12854
   N       10.88926        -5.00292        -1.36092
   F       11.76385        -4.16226        -3.25353
   F       14.23828        -5.25387        -2.56508
   C       12.47687        -7.00052         1.32604
   C       11.33188        -7.15240         2.14508
   C       10.05201        -6.57942         1.79268
   N        9.12736        -6.85086         2.71487
   S        9.77972        -7.72184         3.89021
   N       11.26824        -7.80812         3.30486
   C       13.74513        -7.54557         1.65941
   C       14.05287        -8.31056         2.77904
   C       15.39096        -8.67685         2.80758
   C       16.11514        -8.18518         1.70114
   S       15.14011        -7.28245         0.62665
   C       17.45998        -8.60521         1.83263
   C       17.59052        -9.36190         3.01535
   C       16.29077        -9.43369         3.66411
   C       15.97667       -10.07457         4.82591
   C       16.93385       -10.78704         5.57973
   N       17.70167       -11.36869         6.20117
   C       14.66825       -10.07180         5.35574
   N       13.60876       -10.07863         5.79384
   C       18.89081        -9.81181         3.22953
   C       19.74509        -9.40082         2.21989
   S       18.93620        -8.45161         0.99081
   C       21.13251        -9.67913         2.13665
   N       21.77763       -10.37232         3.02727
   C       23.06761       -10.47328         2.70136
   C       23.46833        -9.84215         1.51443
   S       22.11876        -9.07890         0.77664
   N       24.76805        -9.94944         1.19866
   C       25.38419       -10.63697         2.09267
   S       24.42667       -11.23266         3.43355
   H       -1.21007         0.97203        -5.81697
   H        2.45708        -2.92450        -0.57390
   H        7.37652        -5.79631         1.92960
   H       13.31223        -8.56542         3.51428
   H       19.23195       -10.40293         4.05907
   H       26.43321       -10.84885         2.04452
*
