# ORCA input file
# SCF done       -218.558063624721          0.000451918416
! CAM-B3LYP def2-SVP def2/J RIJCOSX Grid4 TightSCF
%maxcore 5000
%tddft
    Mode sTDDFT
    Ethresh 5.0
    maxcore 5000
end

%pal
  nprocs 6
  end
* xyz 0 1
   C        1.50229         1.23074         3.83480
   C        1.84340         1.60965         5.10283
   F        2.60040         2.69605         5.29982
   C        1.40541         0.86514         6.21713
   F        1.75628         1.25995         7.44750
   C        0.63194        -0.24882         6.04734
   C        0.26444        -0.66536         4.75305
   C        0.70516         0.08720         3.62539
   C        0.34543        -0.30957         2.31716
   C       -0.43210        -1.42459         2.14268
   C       -0.85994        -2.17330         3.27344
   C       -0.52912        -1.81550         4.54876
   C       -1.66476        -3.32772         2.83200
   O       -2.15379        -4.17257         3.54868
   C       -1.66029        -3.26865         1.34643
   C       -0.95992        -2.06184         0.94131
   C       -0.88203        -1.55544        -0.32923
   C       -1.48902        -2.12698        -1.46807
   N       -1.97353        -2.52449        -2.43014
   C       -0.20864        -0.36025        -0.66048
   N        0.33038         0.59752        -0.99083
   C       -2.04745        -4.26559         0.49585
   C       -2.81272        -5.41743         0.78075
   C       -3.70187        -5.69141         1.81116
   C       -4.25433        -6.96063         1.69900
   C       -3.78887        -7.67069         0.57235
   S       -2.70545        -6.75726        -0.36560
   C       -4.36173        -8.96852         0.59137
   C       -5.18867        -9.07565         1.72507
   C       -5.18220        -7.80639         2.43483
   C       -5.92744        -7.46378         3.52249
   C       -6.85678        -8.35058         4.11082
   N       -7.63678        -9.04954         4.57571
   C       -5.87563        -6.17715         4.10376
   N       -5.86461        -5.13368         4.57715
   C       -5.75142       -10.34343         1.86872
   C       -5.36290       -11.18437         0.84537
   S       -4.30268       -10.41081        -0.31587
   C       -5.68330       -12.56052         0.65631
   C       -6.28703       -13.50441         1.47289
   C       -6.76921       -13.32813         2.86117
   O       -6.12640       -12.79210         3.71690
   O       -7.99846       -13.81428         3.10975
   C       -6.26154       -14.69284         0.67414
   N       -5.71813       -14.43648        -0.49689
   O       -5.37405       -13.13714        -0.51707
   C       -6.64721       -16.03441         1.01893
   C       -6.76756       -17.08691         0.13694
   C       -7.06538       -18.28119         0.79833
   C       -7.14881       -18.12130         2.19192
   S       -6.88199       -16.51480         2.68793
   C       -7.42544       -19.38225         2.78283
   C       -7.52106       -20.33862         1.75463
   C       -7.29377       -19.68100         0.47683
   C       -7.27001       -20.27496        -0.74990
   C       -7.48323       -21.66286        -0.89425
   N       -7.66254       -22.79108        -0.99178
   C       -7.04119       -19.55022        -1.93917
   N       -6.86969       -18.96323        -2.90837
   C       -7.74883       -21.62308         2.23303
   C       -7.81878       -21.66061         3.61848
   S       -7.63742       -20.06034         4.32625
   C       -8.04403       -22.75951         4.47670
   C       -7.92087       -24.09251         4.23002
   C       -8.60140       -25.04395         5.15798
   O       -9.07534       -24.77805         6.23711
   C       -8.61359       -26.33650         4.44853
   C       -9.22048       -27.50571         4.80711
   C       -9.12633       -28.61999         3.94397
   C       -8.41132       -28.49615         2.71687
   C       -8.33149       -29.60869         1.85530
   C       -8.92852       -30.78935         2.19808
   C       -9.63263       -30.91148         3.41342
   C       -9.73052       -29.85017         4.26893
   F      -10.20801       -32.08033         3.72291
   F       -8.85041       -31.84580         1.37990
   C       -7.78666       -27.27457         2.37583
   C       -7.87736       -26.21292         3.23572
   C       -7.31155       -24.86671         3.16851
   C       -6.22488       -24.51694         2.41050
   C       -5.53980       -23.29287         2.53312
   N       -4.94106       -22.31699         2.61984
   C       -5.60362       -25.38212         1.48411
   N       -5.06050       -26.04696         0.72341
   H        1.84469         1.81317         2.99372
   H        0.30443        -0.80818         6.90963
   H        0.70015         0.27684         1.48510
   H       -0.87087        -2.40193         5.38799
   H       -1.70179        -4.20592        -0.52982
   H       -3.92450        -4.99270         2.59498
   H       -6.38604       -10.64639         2.68004
   H       -8.44148       -14.16560         2.32592
   H       -6.63725       -16.96337        -0.92225
   H       -7.90063       -22.48871         1.61466
   H       -8.42735       -22.51941         5.46452
   H       -9.76540       -27.57899         5.73589
   H       -7.79340       -29.53350         0.92333
   H      -10.27322       -29.95933         5.19482
   H       -7.26125       -27.20504         1.43680
*
