# ORCA input file
# SCF done       -167.698485231999          0.000448584391
! CAM-B3LYP def2-SVP def2/J RIJCOSX Grid4 TightSCF
%maxcore 5000
%tddft
    Mode sTDDFT
    Ethresh 5.0
    maxcore 5000
end

%pal
  nprocs 6
  end
* xyz 0 1
   C       -2.91560         0.50252        -4.04664
   C       -3.29420        -0.74433        -4.49039
   C       -2.48764        -1.56793        -5.30166
   N       -1.87811        -2.28732        -5.95748
   C       -4.51729        -1.38820        -4.22313
   N       -5.48093        -1.99728        -4.07027
   C       -1.64682         1.15630        -4.36542
   C       -1.63011         2.43409        -3.75541
   C       -0.56961         3.29813        -3.86850
   C        0.53502         2.88044        -4.61904
   C        0.51181         1.60207        -5.22293
   C       -0.56442         0.72904        -5.11039
   S        1.97860         1.28283        -6.09912
   C        2.59323         2.85079        -5.64771
   C        1.74622         3.57758        -4.88121
  Br        4.29683         3.37994        -6.22853
   C       -2.89215         2.63663        -3.01444
   O       -3.20017         3.62819        -2.38129
   C       -3.66989         1.39689        -3.20682
   C       -4.90229         1.15211        -2.63521
   C       -5.57933         2.03868        -1.80352
   C       -6.79626         1.74934        -1.21894
   C       -7.52968         2.58057        -0.34149
   C       -8.69507         2.03133         0.10674
   C       -8.94135         0.73862        -0.40133
   S       -7.64545         0.24200        -1.46932
   C      -10.01713        -0.09145        -0.14513
   C      -11.12364         0.13512         0.70442
   C      -12.01513        -0.89316         0.74772
   C      -11.66498        -1.99305        -0.07362
   S      -10.14085        -1.65929        -0.90164
   C      -12.35176        -3.15965        -0.25126
   N      -11.91994        -4.13221        -1.08743
   C      -12.51430        -5.32090        -1.34058
   S      -13.97802        -5.78686        -0.53448
   C      -13.96987        -7.27621        -1.42648
   N      -15.01102        -8.17387        -1.18678
   O      -15.01383        -9.22067        -1.81037
   O      -15.84548        -7.83505        -0.36178
   C      -12.90940        -7.39548        -2.28450
   C      -12.05020        -6.28102        -2.25713
   C      -10.86417        -6.11370        -3.04610
   C      -10.45244        -6.95681        -4.01775
   C       -9.26406        -6.75987        -4.77406
   O       -8.45255        -5.68850        -4.53459
   C       -7.42783        -5.74111        -5.36586
   C       -7.53542        -6.83192        -6.20122
   N       -6.68563        -7.09453        -7.30355
   O       -5.57781        -6.60412        -7.28053
   O       -7.14035        -7.75688        -8.21620
   C       -8.73177        -7.51796        -5.81780
   N       -9.24520        -8.67443        -6.32270
   C       -8.51652        -9.67454        -6.93293
   O       -7.21341        -9.85704        -6.62373
   C       -6.78712       -10.92217        -7.30854
   C       -7.80709       -11.46860        -8.05150
   C       -8.95397       -10.64744        -7.80159
   O      -10.23395       -10.72498        -8.23405
   C      -10.52527       -11.72100        -9.19355
   C       -7.69627       -12.60460        -8.86875
   N       -7.59975       -13.54105        -9.52316
   H       -0.58991         4.26573        -3.39194
   H       -0.53019        -0.23425        -5.59062
   H        1.96466         4.56380        -4.51419
   H       -5.38015         0.19884        -2.82914
   H       -5.13232         2.99868        -1.58945
   H       -7.16923         3.55583        -0.06715
   H       -9.37539         2.51954         0.78112
   H      -11.22756         1.04845         1.26124
   H      -12.91279        -0.89917         1.33917
   H      -13.27709        -3.34087         0.27497
   H      -11.05587        -3.94208        -1.58634
   H      -12.77402        -8.26861        -2.89482
   H      -10.25181        -5.24370        -2.85412
   H      -11.02310        -7.83820        -4.26593
   H       -6.68609        -4.96632        -5.32459
   H      -10.22278        -8.87257        -6.17462
   H       -5.75688       -11.20116        -7.21905
   H      -11.57819       -11.59417        -9.43753
   H      -10.36013       -12.72381        -8.78978
   H       -9.92113       -11.59280       -10.09531
*
