# ORCA input file
# SCF done       -207.994947826861          0.000651728630
! CAM-B3LYP def2-SVP def2/J RIJCOSX Grid4 TightSCF
%maxcore 5000
%tddft
    Mode sTDDFT
    Ethresh 5.0
    maxcore 5000
end

%pal
  nprocs 6
  end
* xyz 0 1
   C      -11.23423         1.00763         3.35841
   C      -11.26426        -0.35528         3.19504
   C      -11.59280        -1.27030         4.21664
   N      -11.84320        -2.07417         4.99776
   C      -10.96644        -1.05013         2.00530
   N      -10.74210        -1.69872         1.08357
   C      -11.54796         1.71289         4.59646
   C      -11.37056         3.10291         4.38679
   C      -11.54991         4.03136         5.38295
   C      -11.94266         3.56761         6.64193
   C      -12.16546         2.18298         6.83079
   C      -11.96370         1.24227         5.82855
   S      -12.71109         1.84037         8.44206
   C      -12.62667         3.53482         8.83323
   C      -12.19730         4.32081         7.81906
  Br      -13.16016         4.12073        10.53243
   C      -10.98349         3.34192         2.98388
   O      -10.78393         4.42344         2.46874
   C      -10.88556         1.99892         2.36041
   C      -10.48605         1.76472         1.07056
   C      -10.19315         2.77099         0.13070
   C       -9.68690         2.49398        -1.10569
   C       -9.38551         3.49196        -2.05259
   O       -9.69801         4.79323        -1.82412
   C       -9.26141         5.53491        -2.86970
   C       -8.64783         4.69236        -3.79985
   C       -8.73601         3.38768        -3.28778
   O       -8.28310         2.25339        -3.84948
   O       -8.07003         4.99830        -4.99239
   C       -9.47609         6.93160        -2.89351
   C      -10.24721         7.57375        -1.96922
   C      -10.47976         8.96042        -1.95030
   C      -11.32056         9.53328        -1.03736
   C      -11.59898        10.89698        -0.85847
   S      -12.20119        11.35925         0.70496
   C      -11.93324        13.05413         0.42542
   C      -11.44579        13.25084        -0.89764
   C      -11.34651        12.04353        -1.64688
   C      -11.06774        12.10183        -3.03429
   C      -11.38941        10.98894        -3.94881
   O      -12.29521        10.20809        -3.80111
   O      -10.61344        10.97363        -5.05047
   C      -10.70531        13.31614        -3.58563
   C      -10.67664        14.47791        -2.82188
   C      -11.08572        14.47493        -1.50110
   O      -11.15129        15.62269        -0.78634
   C      -12.18123        14.01817         1.38992
   C      -12.74828        13.82309         2.63915
   C      -12.97831        14.82458         3.60333
   C      -13.58133        14.37660         4.74766
   C      -13.86264        12.99969         4.73086
   S      -13.32151        12.28241         3.23526
   C      -14.48757        12.22694         5.70540
   C      -14.93503        12.61918         6.97895
   C      -15.50968        11.60644         7.69946
   C      -15.55000        10.37403         7.01811
   S      -14.82308        10.53465         5.44061
   C      -16.03614         9.14026         7.42754
   C      -16.64422         8.89046         8.64720
   C      -17.07961         7.66360         9.11942
   C      -16.81137         6.32742         8.68175
   C      -15.71412         5.88581         7.97113
   C      -15.52435         4.56076         7.54480
   N      -15.30619         3.50696         7.13860
   C      -14.58623         6.67343         7.68076
   N      -13.60044         7.22587         7.46861
   C      -17.81073         5.45287         9.29478
   C      -18.56691         6.21226        10.22183
   C      -18.10006         7.61625        10.18592
   O      -18.49924         8.54435        10.85818
   C      -19.56801         5.66265        10.98205
   C      -19.84256         4.29975        10.81381
   C      -19.08452         3.55247         9.88391
   C      -18.06406         4.10769         9.11930
   S      -19.59442         1.89197         9.83004
   C      -20.80316         2.22082        11.04245
   C      -20.82523         3.50601        11.46716
  Br      -21.92625         0.83733        11.62927
   H      -11.40194         5.08388         5.19864
   H      -12.13644         0.19739         6.02475
   H      -12.08867         5.38846         7.88294
   H      -10.37622         0.74172         0.73432
   H      -10.36031         3.80024         0.41048
   H       -9.46534         1.47935        -1.40600
   H       -7.87177         2.47101        -4.69656
   H       -8.11828         5.94792        -5.14398
   H       -9.01292         7.49009        -3.69669
   H      -10.72705         6.97283        -1.20953
   H       -9.94202         9.57476        -2.65875
   H      -11.76502         8.87804        -0.29768
   H      -10.93208        10.28816        -5.65830
   H      -10.47785        13.36978        -4.63841
   H      -10.38594        15.41134        -3.28408
   H      -10.87511        16.36704        -1.33745
   H      -11.91606        15.03465         1.13942
   H      -12.69424        15.84737         3.42923
   H      -13.83289        15.00359         5.58365
   H      -14.82069        13.62541         7.34043
   H      -15.90016        11.72430         8.69376
   H      -15.94315         8.33338         6.71495
   H      -16.89952         9.73002         9.28293
   H      -20.12443         6.26171        11.68569
   H      -17.51631         3.49801         8.41983
   H      -21.50606         3.88147        12.20916
*
