# ORCA input file
# SCF done       -195.894373981400          0.001905655653
! CAM-B3LYP def2-SVP def2/J RIJCOSX Grid4 TightSCF
%maxcore 5000
%tddft
    Mode sTDDFT
    Ethresh 5.0
    maxcore 5000
end

%pal
  nprocs 6
  end
* xyz 0 1
   C       -9.36995         0.33592        -3.25543
   C      -10.70216         0.17315        -3.00596
   C      -11.46402        -0.92339        -3.46546
   N      -12.12812        -1.79765        -3.79825
   C      -11.50315         1.08180        -2.27828
   N      -12.22021         1.77688        -1.71299
   C       -8.52575        -0.52829        -4.06433
   C       -7.24908         0.07266        -4.21100
   C       -6.23777        -0.50971        -4.93641
   C       -6.49158        -1.74676        -5.53645
   C       -7.76822        -2.34203        -5.38061
   C       -8.79313        -1.75126        -4.65489
   S       -7.86514        -3.86943        -6.20034
   C       -6.21533        -3.69177        -6.73618
   C       -5.61941        -2.54813        -6.32178
  Br       -5.43526        -5.03198        -7.78824
   C       -7.22020         1.35366        -3.48543
   O       -6.35224         2.19684        -3.51811
   C       -8.52908         1.42709        -2.76860
   C       -8.80267         2.28751        -1.77849
   C       -7.77017         3.21029        -1.22137
   C       -8.32417         4.20525        -0.25868
   N       -9.54439         4.69396        -0.31280
   S       -9.75342         5.77225         0.87671
   N       -8.25587         5.64641         1.49541
   C       -7.57432         4.75134         0.81056
   C       -6.17433         4.33822         1.15961
   C       -5.94620         2.97697         0.57994
   C       -6.68077         2.44961        -0.51322
   N       -6.30432         1.23091        -0.82731
   S       -5.10728         0.76800         0.15944
   N       -5.04713         2.13279         1.03374
   C       -5.18090         5.31777         0.60152
   O       -4.27776         4.91448        -0.31195
   C       -3.52267         5.94752        -0.63350
   C       -3.91298         7.07596         0.06273
   N       -3.25741         8.31738        -0.11340
   O       -2.41712         8.36224        -0.98772
   O       -3.55521         9.25572         0.60105
   C       -5.02256         6.66506         0.88502
   N       -5.86115         7.31720         1.74665
   C       -5.78731         8.53895         2.30829
   C       -6.76808         8.97014         3.15672
   C       -6.81150        10.14372         3.94729
   C       -7.87473        10.19909         4.79899
   C       -8.73463         9.08096         4.70996
   S       -8.18644         7.97293         3.48807
   C       -9.83153         8.72333         5.47446
   C      -10.32803         9.25898         6.67584
   C      -11.26813         8.46684         7.27141
   C      -11.55143         7.26907         6.57457
   S      -10.67400         7.23743         5.07700
   C      -12.44422         6.28861         6.98467
   C      -12.75630         5.06684         6.41200
   C      -12.18033         4.26191         5.43118
   C      -13.08998         3.29220         4.77587
   O      -14.25066         3.07656         5.05627
   C      -12.29552         2.64506         3.71107
   C      -12.66769         1.66697         2.83886
   C      -11.69648         1.10767         1.97605
   C      -10.36231         1.60166         2.02508
   C       -9.38678         0.99723         1.20996
   C       -9.73611        -0.05043         0.40344
   C      -11.04268        -0.54584         0.33883
   C      -12.00661         0.03858         1.11413
   F       -8.79347        -0.63921        -0.36924
   C      -10.01751         2.64661         2.91755
   C      -10.96707         3.15162         3.76286
   C      -10.87928         4.10456         4.87525
   C       -9.67921         4.57982         5.38753
   C       -9.56338         5.09706         6.68911
   N       -9.43966         5.48454         7.76369
   C       -8.45530         4.50897         4.70782
   N       -7.44056         4.52761         4.16305
   H       -5.27778        -0.02738        -5.03336
   H       -9.74727        -2.24299        -4.56336
   H       -4.60655        -2.27961        -6.56040
   H       -9.76314         2.30455        -1.28478
   H       -7.28834         3.74067        -2.05821
   H       -6.07916         4.30500         2.25432
   H       -2.73288         5.81960        -1.34702
   H       -6.67141         6.75526         2.02330
   H       -4.93449         9.16101         2.07849
   H       -6.04255        10.89247         3.88011
   H       -8.06029        11.00092         5.49047
   H       -9.95160        10.17651         7.09090
   H      -11.73289         8.68360         8.21644
   H      -13.03257         6.56210         7.85245
   H      -13.70213         4.64859         6.75113
   H      -13.68160         1.29678         2.82847
   H       -8.36488         1.34192         1.24555
   H      -11.26327        -1.37986        -0.30945
   H      -13.02212        -0.32488         1.08124
   H       -8.99617         2.99461         2.93064
*
