# ORCA input file
# SCF done       -194.874496308645          0.002405933293
! CAM-B3LYP def2-SVP def2/J RIJCOSX Grid4 TightSCF
%maxcore 5000
%tddft
    Mode sTDDFT
    Ethresh 5.0
    maxcore 5000
end

%pal
  nprocs 6
  end
* xyz 0 1
   C       -3.31667         9.52845         3.05940
   C       -3.33975         9.50916         4.42953
   C       -3.16426        10.65063         5.23781
   N       -3.05257        11.55151         5.94049
   C       -3.57038         8.34532         5.19184
   N       -3.76031         7.41970         5.84259
   C       -3.07733        10.70447         2.22319
   C       -3.11617        10.31358         0.86067
   C       -2.90564        11.19194        -0.17444
   C       -2.70202        12.53705         0.14537
   C       -2.71596        12.93051         1.50576
   C       -2.87722        12.03134         2.55441
   S       -2.53359        14.65033         1.66815
   C       -2.43333        14.81689        -0.06435
   C       -2.52550        13.64066        -0.73216
  Br       -2.22468        16.50934        -0.82471
   C       -3.48263         8.89556         0.78456
   O       -3.72480         8.24541        -0.22486
   C       -3.57307         8.41918         2.16901
   C       -3.92148         7.11966         2.44884
   N       -4.27314         6.29695         1.45577
   C       -4.59069         4.97874         1.54454
   S       -4.14094         4.00943         2.90945
   C       -4.76800         2.61473         2.09424
   N       -4.71157         1.39016         2.77741
   O       -5.15256         0.40882         2.21499
   O       -4.22030         1.41366         3.89065
   C       -5.27809         2.88195         0.85166
   C       -5.20775         4.24803         0.52406
   C       -5.76721         4.82785        -0.67651
   C       -6.36722         6.03007        -0.71033
   C       -6.90310         6.63393        -1.90325
   C       -7.72105         7.81051        -1.82258
   C       -8.34317         8.38830        -0.74498
   S       -9.27977         9.74214        -1.20158
   C       -8.84585         9.56944        -2.84845
   C       -8.01398         8.49626        -3.05490
   C       -7.47448         7.90404        -4.24799
   N       -6.91212         6.71171        -4.19478
   N       -6.62035         6.11312        -3.07592
   C       -7.48862         8.50563        -5.55318
   C       -7.63890         9.81564        -5.81957
   N       -7.61157        10.29926        -7.10027
   C       -7.69229        11.56504        -7.57879
   S       -8.11408        11.69541        -9.26286
   C       -7.98821        13.42153        -9.16600
   N       -8.27817        14.16222       -10.32020
   O       -8.20150        15.37256       -10.24913
   O       -8.59698        13.52380       -11.30744
   C       -7.61801        13.85959        -7.92890
   C       -7.43593        12.81794        -6.99080
   C       -6.94976        13.05545        -5.66240
   C       -6.26659        14.16676        -5.29290
   C       -5.78951        14.44788        -3.98713
   C       -5.59855        13.64973        -2.89707
   C       -5.56098        12.22104        -2.67191
   C       -5.14796        11.24366        -3.54209
   C       -5.01285         9.88436        -3.18997
   N       -4.90212         8.76430        -2.96719
   C       -4.75983        11.47063        -4.87599
   N       -4.44694        11.59490        -5.97332
   C       -5.79434        12.00247        -1.24669
   C       -5.71757        13.24520        -0.57312
   C       -5.48385        14.31245        -1.56626
   O       -5.27228        15.48398        -1.35533
   C       -5.85061        13.35629         0.78938
   C       -6.09775        12.18708         1.51663
   C       -6.21403        10.95839         0.82646
   C       -6.04985        10.84060        -0.54713
   S       -6.56297         9.65132         1.91555
   C       -6.50929        10.74987         3.27215
   C       -6.26144        12.03389         2.92116
  Br       -6.79072        10.08464         5.00530
   H       -2.91297        10.84912        -1.19769
   H       -2.85695        12.37869         3.57407
   H       -2.47154        13.55724        -1.80299
   H       -3.95339         6.72623         3.45716
   H       -4.24353         6.72794         0.51033
   H       -5.71010         2.12496         0.22283
   H       -5.74622         4.22962        -1.57561
   H       -6.48833         6.60945         0.19517
   H       -8.33598         8.07553         0.27914
   H       -9.30297        10.22104        -3.56497
   H       -7.26530         7.81665        -6.35601
   H       -7.80150        10.53690        -5.03976
   H       -7.57552         9.57896        -7.81363
   H       -7.51036        14.90479        -7.70594
   H       -7.15579        12.31399        -4.90823
   H       -6.09314        14.94427        -6.02240
   H       -5.59367        15.49798        -3.78505
   H       -5.77193        14.31297         1.28162
   H       -6.11376         9.87692        -1.02314
   H       -6.19587        12.84246         3.62592
*
