# ORCA input file
# SCF done       -196.488631560430          0.000590864466
! CAM-B3LYP def2-SVP def2/J RIJCOSX Grid4 TightSCF
%maxcore 5000
%tddft
    Mode sTDDFT
    Ethresh 5.0
    maxcore 5000
end

%pal
  nprocs 6
  end
* xyz 0 1
   C      -10.40423       -11.63604        -5.56913
   C      -10.09316       -11.48364        -4.23755
   C       -9.62077       -12.53112        -3.41964
   N       -9.21458       -13.34425        -2.71798
   C      -10.15324       -10.28750        -3.49407
   N      -10.14576        -9.36482        -2.80801
   C      -10.29881       -12.88202        -6.32687
   C      -10.66324       -12.62980        -7.67306
   C      -10.65689       -13.60593        -8.63843
   C      -10.27419       -14.89737        -8.25955
   C       -9.91808       -15.14151        -6.91304
   C       -9.92390       -14.15318        -5.93568
   S       -9.48075       -16.80451        -6.65912
   C       -9.77671       -17.14244        -8.34376
   C      -10.18301       -16.06857        -9.06102
  Br       -9.52011       -18.88205        -8.99761
   C      -11.02885       -11.20528        -7.82180
   O      -11.38344       -10.64939        -8.84247
   C      -10.86807       -10.61664        -6.47866
   C      -11.13690        -9.30847        -6.15179
   C      -11.61387        -8.31043        -7.00085
   C      -11.86071        -7.04269        -6.51096
   C      -12.41729        -5.91964        -7.16927
   C      -12.58883        -4.82797        -6.36673
   C      -12.16621        -5.03762        -5.03714
   S      -11.52225        -6.64899        -4.84419
   C      -12.24428        -4.24288        -3.90920
   C      -12.86293        -2.99573        -3.66938
   C      -12.88684        -2.64373        -2.35470
   C      -12.29992        -3.60460        -1.47929
   S      -11.60479        -4.90211        -2.42454
   C      -12.26391        -3.52224        -0.11623
   N      -11.82066        -4.44112         0.78995
   C      -11.65211        -5.79034         0.69815
   S      -12.53963        -6.75570        -0.43432
   C      -11.67832        -8.16684         0.08217
   N      -11.98987        -9.36837        -0.56839
   O      -11.42283       -10.37854        -0.20544
   O      -12.83574        -9.30304        -1.44372
   C      -10.78744        -7.91764         1.08552
   C      -10.78604        -6.56774         1.50244
   C       -9.97568        -6.13556         2.59911
   C      -10.21735        -5.05817         3.39331
   C       -9.42565        -4.59127         4.45663
   C       -9.74736        -3.42277         5.10576
   C       -9.13294        -2.79876         6.21587
   C       -9.72003        -1.62736         6.60202
   C      -10.82367        -1.25278         5.80688
   S      -11.10109        -2.43546         4.56025
   C      -11.67128        -0.16097         5.88620
   C      -11.77214         0.87866         6.82910
   C      -12.82340         1.72051         6.59839
   C      -13.61495         1.38339         5.47404
   S      -12.93725        -0.01039         4.68727
   C      -14.70653         2.09417         4.99706
   C      -15.51815         1.82192         3.90127
   C      -15.71932         0.67272         3.14771
   C      -15.54609        -0.71907         3.41148
   C      -15.45849        -1.32377         4.65164
   C      -15.19207        -2.68948         4.84488
   N      -14.91273        -3.78618         5.04721
   C      -15.67123        -0.63366         5.85776
   N      -15.85340        -0.10205         6.85954
   C      -15.63164        -1.43503         2.13909
   C      -16.02038        -0.51861         1.13272
   C      -16.16679         0.82502         1.74365
   O      -16.53216         1.84187         1.19429
   C      -16.19709        -0.89232        -0.17590
   C      -15.96544        -2.23347        -0.51054
   C      -15.58243        -3.13946         0.50289
   C      -15.41452        -2.76272         1.83135
   S      -15.34099        -4.74268        -0.12806
   C      -15.72137        -4.17347        -1.73086
   C      -16.03873        -2.85846        -1.78684
  Br      -15.61920        -5.36047        -3.18232
   H      -10.93821       -13.38118        -9.65537
   H       -9.64546       -14.39231        -4.92322
   H      -10.40931       -16.09840       -10.11124
   H      -10.98259        -9.01791        -5.11956
   H      -11.81226        -8.53372        -8.03844
   H      -12.69252        -5.96044        -8.20828
   H      -13.01293        -3.89425        -6.69065
   H      -13.30041        -2.41770        -4.46309
   H      -13.33363        -1.74357        -1.97098
   H      -12.59504        -2.59637         0.33725
   H      -11.53519        -4.04143         1.67542
   H      -10.17401        -8.68518         1.52147
   H       -9.12659        -6.76687         2.82507
   H      -11.13455        -4.49719         3.26154
   H       -8.54868        -5.14162         4.76485
   H       -8.28145        -3.23850         6.70472
   H       -9.38990        -1.02589         7.42997
   H      -11.09065         0.96908         7.65580
   H      -13.07367         2.56062         7.22107
   H      -14.88593         3.03586         5.50075
   H      -16.04609         2.68175         3.49693
   H      -16.50221        -0.17544        -0.92216
   H      -15.12065        -3.48999         2.56948
   H      -16.30788        -2.34676        -2.69259
*
