# ORCA input file
# SCF done       -206.302377804419          0.000550302527
! CAM-B3LYP def2-SVP def2/J RIJCOSX Grid4 TightSCF
%maxcore 5000
%tddft
    Mode sTDDFT
    Ethresh 5.0
    maxcore 5000
end

%pal
  nprocs 6
  end
* xyz 0 1
   C        0.94963        -4.86933        -3.04597
   C        1.75969        -3.78242        -3.22413
   F        3.08881        -3.93238        -3.26050
   C        1.20855        -2.49348        -3.37133
   F        2.02501        -1.44650        -3.54484
   C       -0.14552        -2.30930        -3.33798
   C       -1.00572        -3.40915        -3.15443
   C       -0.45008        -4.71305        -3.00617
   C       -1.29459        -5.83219        -2.81771
   C       -2.65112        -5.65242        -2.77414
   C       -3.19746        -4.34391        -2.91945
   C       -2.40785        -3.24581        -3.10805
   C       -4.65862        -4.42450        -2.81144
   O       -5.46645        -3.50439        -2.89328
   C       -4.97348        -5.83669        -2.56771
   C       -3.74717        -6.60189        -2.58187
   C       -3.61893        -7.95971        -2.45703
   C       -2.38639        -8.64465        -2.48433
   N       -1.41310        -9.25258        -2.50096
   C       -4.70874        -8.84118        -2.30132
   N       -5.57209        -9.58732        -2.17816
   C       -6.25779        -6.25022        -2.30969
   N       -7.26113        -5.36591        -2.32497
   C       -8.54905        -5.57043        -1.94724
   S       -9.10723        -7.09058        -1.32620
   C      -10.64367        -6.36141        -0.98756
   N      -11.63699        -7.18021        -0.42427
   O      -12.71589        -6.67694        -0.18738
   O      -11.32949        -8.33951        -0.21787
   C      -10.71060        -5.03429        -1.31603
   C       -9.51818        -4.56292        -1.89548
   C       -9.31447        -3.20455        -2.34165
   C       -8.61495        -2.86174        -3.44145
   C       -8.35527        -1.50675        -3.79734
   O       -7.78559        -1.22354        -4.99587
   C       -8.51663        -0.32481        -3.10283
   C       -9.01013         0.26212        -1.85380
   O       -9.54430        -0.24684        -0.90095
   N       -8.73495         1.61650        -1.99631
   C       -8.12328         1.97643        -3.19778
   O       -7.79181         3.09648        -3.49468
   C       -7.99687         0.71001        -3.91736
   C       -7.56008         0.11588        -5.09353
   C       -7.00893         0.64774        -6.28050
   C       -6.61619         1.95157        -6.37970
   C       -6.10868         2.58768        -7.52758
   C       -6.20913         2.20086        -8.84302
   C       -5.67929         2.92775        -9.94155
   C       -6.01175         2.42874       -11.16254
   C       -6.83506         1.28051       -11.10324
   S       -7.12236         0.82678        -9.44135
   C       -7.40499         0.60135       -12.16580
   C       -7.25388         0.88371       -13.54246
   C       -8.00478         0.09004       -14.35624
   C       -8.79022        -0.86469       -13.66446
   S       -8.51205        -0.73321       -11.94318
   C       -9.69764        -1.77932       -14.16419
   C      -10.00747        -1.87866       -15.52003
   C      -10.95110        -2.72854       -16.05706
   C      -11.31710        -2.82588       -17.44894
   C      -10.77225        -2.12894       -18.50318
   C      -11.18165        -2.27338       -19.84386
   N      -11.46627        -2.34240       -20.95438
   C       -9.73737        -1.17815       -18.41041
   N       -8.89929        -0.39101       -18.41703
   C      -12.39149        -3.80980       -17.55803
   C      -12.67352        -4.31990       -16.26713
   C      -11.78275        -3.67292       -15.28136
   O      -11.75704        -3.88643       -14.08575
   C      -13.64505        -5.26265       -16.03846
   C      -14.37753        -5.72537       -17.13736
   C      -14.08903        -5.21065       -18.42300
   C      -13.10420        -4.25731       -18.65406
   S      -15.11239        -5.91486       -19.63803
   C      -15.90349        -6.87771       -18.41845
   C      -15.42738        -6.68370       -17.16566
  Br      -17.28460        -8.04601       -18.91412
   H        1.38831        -5.84864        -2.93491
   H       -0.55160        -1.31625        -3.45087
   H       -0.84302        -6.80460        -2.70641
   H       -2.84671        -2.26543        -3.21548
   H       -6.50311        -7.27854        -2.07646
   H       -6.96942        -4.39308        -2.53823
   H      -11.59075        -4.43654        -1.16276
   H       -9.77748        -2.43292        -1.74090
   H       -8.23238        -3.60027        -4.13191
   H       -8.96183         2.29415        -1.28231
   H       -6.88013        -0.04934        -7.09503
   H       -6.67446         2.56336        -5.48888
   H       -5.62001         3.54028        -7.36598
   H       -5.07647         3.80529        -9.78852
   H       -5.70851         2.86478       -12.09678
   H       -6.60440         1.66320       -13.89742
   H       -8.01257         0.17419       -15.42805
   H      -10.20989        -2.42829       -13.46907
   H       -9.48153        -1.22434       -16.19895
   H      -13.83661        -5.63054       -15.04265
   H      -12.92471        -3.89716       -19.65308
   H      -15.80029        -7.19375       -16.29632
*
