# ORCA input file
# SCF done       -211.445528112408          0.000559164429
! CAM-B3LYP def2-SVP def2/J RIJCOSX Grid4 TightSCF
%maxcore 5000
%tddft
    Mode sTDDFT
    Ethresh 5.0
    maxcore 5000
end

%pal
  nprocs 6
  end
* xyz 0 1
   C      -13.15008        -5.62362        -6.19172
   C      -14.37999        -5.49141        -5.60966
   F      -15.49041        -5.69968        -6.32563
   C      -14.49334        -5.14036        -4.25051
   F      -15.70967        -5.00697        -3.70370
   C      -13.37684        -4.94016        -3.48773
   C      -12.09700        -5.07704        -4.05709
   C      -11.98067        -5.41178        -5.43663
   C      -10.70462        -5.51457        -6.03894
   C       -9.58405        -5.30561        -5.28177
   C       -9.70987        -5.00923        -3.89699
   C      -10.92429        -4.89355        -3.28831
   C       -8.35819        -4.92416        -3.30892
   O       -8.10459        -4.91606        -2.11157
   C       -7.41947        -4.99087        -4.42307
   C       -8.15919        -5.32925        -5.61600
   C       -7.66323        -5.64601        -6.85906
   C       -6.30970        -5.65678        -7.24943
   N       -5.24592        -5.67143        -7.68562
   C       -8.46402        -5.98763        -7.96516
   N       -9.04578        -6.25555        -8.91954
   C       -6.03785        -4.85753        -4.37220
   C       -5.15966        -4.49713        -3.35972
   C       -5.29926        -3.90262        -2.11194
   C       -4.22358        -3.87269        -1.18057
   C       -4.53011        -3.31193         0.01794
   C       -5.85468        -2.81619         0.06992
   S       -6.66575        -3.07332        -1.46180
   C       -6.50491        -2.30473         1.17610
   C       -6.00840        -2.18940         2.49759
   C       -6.91574        -1.73475         3.40304
   C       -8.18274        -1.43240         2.84600
   S       -8.16354        -1.77064         1.10611
   C       -9.28416        -0.93313         3.47908
   N      -10.41027        -0.63071         2.79420
   C      -11.53267        -0.00714         3.22841
   S      -11.85212         0.31942         4.89663
   C      -13.29036         1.17342         4.42786
   N      -14.05359         1.72804         5.45820
   O      -15.05870         2.34306         5.15743
   O      -13.63857         1.54881         6.59260
   C      -13.50025         1.20285         3.07223
   C      -12.50473         0.51561         2.36282
   C      -12.37231         0.38750         0.93103
   C      -12.69111         1.33274         0.03290
   N      -12.35098         1.17578        -1.28219
   C      -12.44289         2.10130        -2.25355
   S      -13.51745         3.45962        -2.15812
   C      -13.07744         3.90256        -3.78292
   N      -13.65916         5.06122        -4.31109
   O      -13.35863         5.37924        -5.44544
   O      -14.42585         5.66442        -3.58033
   C      -12.16856         3.05740        -4.35456
   C      -11.75570         2.03242        -3.48039
   C      -10.71733         1.09579        -3.79065
   C       -9.87300         0.51802        -2.90063
   C       -8.84791        -0.40353        -3.25496
   C       -8.85800        -1.28826        -4.28961
   C       -7.57687        -1.78624        -4.86423
   O       -6.48843        -1.76717        -4.33850
   C       -7.92826        -2.22928        -6.22801
   C       -7.10519        -2.59342        -7.25479
   C       -7.67392        -2.96676        -8.49458
   C       -9.09255        -2.95676        -8.64817
   C       -9.65167        -3.33493        -9.88450
   C       -8.84206        -3.71231       -10.91921
   C       -7.43999        -3.72699       -10.76433
   C       -6.86607        -3.36043        -9.57853
   F       -6.67440        -4.09329       -11.79520
   F       -9.37142        -4.06023       -12.09377
   C       -9.92016        -2.57215        -7.56972
   C       -9.34681        -2.20644        -6.38059
   C       -9.93736        -1.75014        -5.13174
   C      -11.24767        -1.90965        -4.74236
   C      -11.65961        -1.63970        -3.43283
   N      -11.99233        -1.42339        -2.35163
   C      -12.28477        -2.32977        -5.59517
   N      -13.17332        -2.60875        -6.26614
   H      -13.07972        -5.88438        -7.23586
   H      -13.48062        -4.67463        -2.44713
   H      -10.65165        -5.75785        -7.08731
   H      -10.99360        -4.66421        -2.23557
   H       -5.53122        -5.12742        -5.29024
   H       -4.12394        -4.72927        -3.58826
   H       -3.27188        -4.31502        -1.41660
   H       -3.85760        -3.25675         0.85441
   H       -4.99958        -2.46572         2.74325
   H       -6.71915        -1.60239         4.45163
   H       -9.28195        -0.74090         4.54144
   H      -10.36995        -0.81018         1.79514
   H      -14.35035         1.68722         2.62831
   H      -11.90983        -0.51888         0.55917
   H      -13.13788         2.27748         0.30591
   H      -12.03471         0.23841        -1.56935
   H      -11.78828         3.20144        -5.34978
   H      -10.55975         0.91478        -4.84705
   H       -9.88259         0.84330        -1.86877
   H       -7.92591        -0.35739        -2.68547
   H       -6.03353        -2.60587        -7.12508
   H      -10.72213        -3.33766       -10.01652
   H       -5.79284        -3.38869        -9.47293
   H      -10.98944        -2.55776        -7.71185
*
