# ORCA input file
# SCF done       -179.537768938879          0.000747607339
! CAM-B3LYP def2-SVP def2/J RIJCOSX Grid4 TightSCF
%maxcore 5000
%tddft
    Mode sTDDFT
    Ethresh 5.0
    maxcore 5000
end

%pal
  nprocs 6
  end
* xyz 0 1
   C        4.19570         6.37170        -5.08817
   C        3.51016         5.23181        -5.24283
   C        2.31282         5.02270        -6.00764
   C        1.84149         3.75819        -5.97538
   C        2.61931         2.86156        -5.18695
   S        3.98969         3.70365        -4.48712
   C        2.37934         1.53020        -4.96332
   C        1.30673         0.73989        -5.45362
   C        1.32756        -0.55146        -5.04136
   C        2.42081        -0.87373        -4.18966
   S        3.43745         0.55247        -3.95895
   C        2.66716        -2.07621        -3.60527
   N        3.72040        -2.29210        -2.76587
   C        4.06076        -3.43800        -2.12958
   S        5.05154        -3.31541        -0.70308
   C        4.91184        -5.03211        -0.47042
   N        5.58530        -5.59559         0.60967
   O        5.48646        -6.80016         0.77925
   O        6.22923        -4.83217         1.31579
   C        4.15228        -5.64567        -1.43190
   C        3.66861        -4.75724        -2.40863
   C        2.96658        -5.17688        -3.59474
   C        2.18168        -6.27428        -3.64800
   C        1.50288        -6.76473        -4.79754
   S        0.08055        -7.71934        -4.56515
   C       -0.21844        -7.89133        -6.26639
   C        0.76288        -7.21166        -7.00195
   C        1.75386        -6.59269        -6.16855
   C        2.84927        -5.95173        -6.76926
   C        2.91663        -5.83738        -8.13769
   C        4.08776        -5.14364        -8.71578
   O        4.92213        -4.56151        -8.06361
   O        4.12968        -5.22426       -10.05522
   C        5.22847        -4.57769       -10.67766
   C        1.87990        -6.34977        -8.95284
   C        0.83458        -7.02795        -8.40025
   C       -1.35492        -8.64044        -6.65735
   C       -1.57958        -9.24122        -7.85333
   C       -2.78721        -9.92814        -8.14588
   O       -3.83542        -9.88847        -7.27881
   C       -4.85631       -10.59610        -7.80293
   C       -4.47892       -11.12663        -9.04305
   C       -3.14944       -10.68812        -9.25140
   O       -2.39452       -10.98251       -10.34404
   C       -5.30926       -11.95519        -9.93048
   O       -6.44032       -12.27784        -9.67149
   O       -4.72337       -12.33939       -11.07360
   C       -6.08745       -10.70079        -7.11825
   C       -6.32116       -10.08240        -5.92902
   C       -7.52905       -10.13688        -5.20867
   S       -8.89839       -11.04295        -5.75130
   C       -9.87996       -10.55712        -4.41205
   C       -9.15759        -9.74411        -3.53318
   C       -7.82364        -9.49319        -3.99190
   C       -6.97050        -8.67734        -3.23647
   C       -7.40855        -8.14423        -2.04629
   C       -6.47718        -7.27948        -1.28943
   O       -5.35752        -7.00356        -1.65141
   O       -7.00814        -6.82074        -0.14455
   C       -6.16795        -5.98316         0.63272
   C       -8.70621        -8.43944        -1.56281
   C       -9.55959        -9.22106        -2.28253
   C      -11.24207       -11.01285        -4.38609
   C      -12.26862       -10.42494        -3.77214
   H        3.86767         7.27809        -5.56564
   H        5.08635         6.41989        -4.48886
   H        1.86003         5.83541        -6.54751
   H        0.95718         3.42645        -6.49030
   H        0.55070         1.15670        -6.09429
   H        0.59606        -1.29255        -5.31007
   H        1.99146        -2.90077        -3.76483
   H        4.24447        -1.46230        -2.50787
   H        3.99631        -6.70879        -1.44535
   H        3.10426        -4.56588        -4.47360
   H        1.96779        -6.80398        -2.72842
   H        3.66385        -5.56452        -6.17933
   H        5.12720        -4.76331       -11.74390
   H        6.17024        -4.98543       -10.30405
   H        5.20518        -3.50555       -10.47007
   H        1.93692        -6.19921       -10.01883
   H        0.04247        -7.40075        -9.02856
   H       -2.10486        -8.77933        -5.88933
   H       -0.82649        -9.24076        -8.62740
   H       -1.51510       -10.59873       -10.25177
   H       -3.81376       -12.00830       -11.14501
   H       -6.84331       -11.29653        -7.60790
   H       -5.52848        -9.49173        -5.49039
   H       -5.96700        -8.45899        -3.56721
   H       -6.75305        -5.68324         1.49824
   H       -5.86216        -5.10923         0.05341
   H       -5.27309        -6.52646         0.94383
   H       -9.00369        -8.03721        -0.60782
   H      -10.53296        -9.46621        -1.89091
   H      -11.42410       -11.90074        -4.97960
   H      -12.17120        -9.50124        -3.23060
   H      -13.25672       -10.84722        -3.82549
*
