# ORCA input file
# SCF done       -154.349327733063          0.000318399645
! CAM-B3LYP def2-SVP def2/J RIJCOSX Grid4 TightSCF
%maxcore 5000
%tddft
    Mode sTDDFT
    Ethresh 5.0
    maxcore 5000
end

%pal
  nprocs 6
  end
* xyz 0 1
   C        7.13388        -4.00364        -6.27503
   C        7.98749        -4.94887        -6.68967
   C        9.34730        -4.78145        -7.11738
   C        9.96534        -5.92533        -7.48373
   C        9.15461        -7.09053        -7.37974
   S        7.55749        -6.66391        -6.78721
   C        9.50308        -8.38119        -7.68550
   C       10.74237        -8.86783        -8.17463
   C       10.77456       -10.20664        -8.39540
   C        9.55809       -10.87630        -8.09630
   S        8.36701        -9.70847        -7.50673
   C        9.28431       -12.20221        -8.23057
   N        8.07287       -12.73341        -7.91323
   C        7.68155       -14.01723        -8.05854
   S        8.74146       -15.20966        -8.74382
   C        7.47986       -16.39743        -8.58068
   N        7.76142       -17.69331        -8.98084
   O        6.88131       -18.53639        -8.85532
   O        8.88042       -17.90907        -9.43090
   C        6.32606       -15.89128        -8.03648
   C        6.41643       -14.52793        -7.71786
   C        5.38225       -13.74808        -7.09069
   C        4.12191       -14.17099        -6.87584
   C        3.14024       -13.37870        -6.19809
   C        1.86589       -13.73713        -5.96423
   C        1.26359       -15.02909        -6.41428
   C        0.93707       -12.75651        -5.28013
   N        0.34762       -11.81437        -6.21047
   C       -0.57950       -12.20704        -7.11814
   C       -1.05826       -11.43261        -8.12347
   C       -2.00810       -11.85282        -9.08736
   C       -2.31209       -13.13483        -9.45314
   C       -3.26256       -13.53415       -10.43067
   C       -3.28685       -14.86734       -10.69692
   C       -2.34958       -15.62187        -9.95187
   S       -1.47129       -14.56844        -8.86085
   C       -2.06839       -16.96576        -9.99869
   C       -2.72294       -17.98442       -10.73619
   C       -2.19763       -19.22066       -10.55942
   C       -1.07537       -19.26865        -9.67469
   S       -0.73972       -17.64302        -9.06916
   C       -0.31436       -20.34830        -9.38490
   C        0.84629       -20.34469        -8.50163
   C        2.08956       -20.79612        -8.97133
   C        2.18613       -21.24857       -10.40690
   C        2.35095       -20.04594       -11.33877
   C        3.22302       -20.73490        -8.15539
   C        4.56538       -21.20018        -8.66031
   C        4.76066       -22.69652        -8.40216
   C        3.09609       -20.26638        -6.84261
   C        4.25852       -20.16458        -5.88939
   C        4.96168       -18.81281        -6.02925
   C        1.85894       -19.84446        -6.38588
   C        0.72494       -19.86674        -7.18561
   C       -0.57560       -19.49495        -6.63477
   C       -0.77209       -18.61630        -5.66051
   H        7.43646        -2.97240        -6.23166
   H        6.12930        -4.23984        -5.97564
   H        9.79962        -3.80567        -7.13075
   H       10.98226        -5.98165        -7.82996
   H       11.57237        -8.20743        -8.34981
   H       11.62783       -10.74547        -8.76660
   H       10.03128       -12.88637        -8.60320
   H        7.38305       -12.08226        -7.55332
   H        5.46106       -16.50513        -7.87093
   H        5.65443       -12.75421        -6.75561
   H        3.81776       -15.14450        -7.22543
   H        3.48210       -12.41379        -5.84048
   H        1.97279       -15.84960        -6.34565
   H        0.93918       -14.95984        -7.45344
   H        0.39098       -15.28141        -5.81714
   H        1.47985       -12.18045        -4.52629
   H        0.12236       -13.29345        -4.78687
   H        0.90722       -11.01012        -6.45352
   H       -1.00030       -13.18242        -6.93146
   H       -0.71188       -10.40942        -8.20003
   H       -2.51287       -11.07132        -9.64174
   H       -3.89322       -12.80876       -10.91553
   H       -3.92944       -15.32856       -11.42599
   H       -3.56631       -17.76628       -11.36791
   H       -2.56369       -20.11476       -11.03383
   H       -0.56781       -21.27558        -9.88396
   H        1.28244       -21.79170       -10.68793
   H        3.02323       -21.92987       -10.54514
   H        1.50263       -19.37209       -11.24164
   H        2.41832       -20.37248       -12.37456
   H        3.25403       -19.49364       -11.08874
   H        5.36370       -20.64188        -8.17615
   H        4.66177       -21.00043        -9.72621
   H        4.69291       -22.91582        -7.33863
   H        5.73705       -23.01597        -8.75965
   H        3.99652       -23.28150        -8.91051
   H        4.97854       -20.96432        -6.05550
   H        3.88288       -20.26420        -4.86777
   H        5.40794       -18.72118        -7.01612
   H        5.74871       -18.71506        -5.28400
   H        4.24896       -18.00196        -5.88701
   H        1.76525       -19.51404        -5.36135
   H       -1.42866       -19.99482        -7.07756
   H        0.03794       -18.06439        -5.21424
   H       -1.75815       -18.40035        -5.28606
*
