# ORCA input file
# SCF done       -180.639931786446          0.000738153956
! CAM-B3LYP def2-SVP def2/J RIJCOSX Grid4 TightSCF
%maxcore 5000
%tddft
    Mode sTDDFT
    Ethresh 5.0
    maxcore 5000
end

%pal
  nprocs 6
  end
* xyz 0 1
   C        8.16131       -14.25629        -8.37799
   C        7.04191       -13.54039        -8.21465
   C        5.79594       -13.68666        -8.91206
   C        4.85036       -12.78875        -8.56398
   C        5.25769       -11.86740        -7.55681
   S        6.90476       -12.20752        -7.05882
   C        4.53020       -10.82462        -7.04353
   C        3.25519       -10.36139        -7.46167
   C        2.81875        -9.25717        -6.80858
   C        3.70723        -8.78611        -5.80082
   S        5.13676        -9.81857        -5.73958
   C        3.50248        -7.72051        -4.98235
   N        4.37097        -7.34395        -3.99882
   C        4.16236        -6.42322        -3.02314
   S        5.56678        -5.62847        -2.36216
   C        4.53413        -4.58850        -1.42897
   N        5.13868        -3.65082        -0.59370
   O        4.41383        -2.91136         0.05099
   O        6.36053        -3.63836        -0.57368
   C        3.20307        -4.84675        -1.61711
   C        2.95789        -5.92015        -2.49524
   C        1.63118        -6.43575        -2.70042
   C        1.35098        -7.72368        -3.01976
   C        0.08122        -8.22312        -3.37294
   C       -0.07644        -9.45938        -3.94123
   C       -1.24824       -10.02194        -4.50902
   C       -1.04822       -11.20386        -5.15272
   C        0.29018       -11.66171        -5.11046
   S        1.28196       -10.55141        -4.19300
   C        0.84008       -12.78227        -5.69224
   C        0.22355       -13.74457        -6.52483
   C        1.06582       -14.71940        -6.95419
   C        2.40455       -14.61041        -6.47578
   S        2.53217       -13.17804        -5.46485
   C        3.40520       -15.48596        -6.78592
   C        4.76446       -15.53070        -6.34809
   C        5.29398       -14.70665        -5.34203
   C        6.61749       -14.78266        -4.94717
   C        7.45080       -15.69672        -5.56698
   C        6.93341       -16.54109        -6.57449
   C        5.62034       -16.47546        -6.95777
   C        8.02096       -17.41338        -7.09202
   O        7.95172       -18.24285        -7.96813
   C        9.21527       -17.02070        -6.29773
   C        8.85948       -15.99185        -5.39652
   C        9.82164       -15.43536        -4.57108
   C       11.11091       -15.93767        -4.61289
   C       11.46376       -16.98866        -5.47040
   C       10.49717       -17.50515        -6.35609
   C       12.79143       -17.53796        -5.52482
   C       13.68209       -17.68812        -4.50866
   C       15.03534       -18.20585        -4.65677
   C       15.75587       -18.26548        -5.81997
   C       17.07495       -18.75847        -5.90651
   N       18.14406       -19.15641        -6.03378
   C       15.30404       -17.80894        -7.07693
   N       15.01675       -17.43696        -8.12439
   C       15.52646       -18.56221        -3.33347
   C       14.54849       -18.20105        -2.37546
   C       13.37823       -17.60854        -3.05334
   O       12.37125       -17.21016        -2.51170
   C       14.72262       -18.39903        -1.02698
   C       15.92061       -18.98233        -0.60291
   C       16.89006       -19.34747        -1.56819
   C       16.71371       -19.14722        -2.93122
   S       18.29209       -20.05834        -0.82780
   C       17.56903       -19.85490         0.74596
   C       16.34061       -19.28537         0.72106
  Br       18.50394       -20.41354         2.27252
   H        8.20303       -15.05525        -9.09705
   H        9.04969       -14.05886        -7.80588
   H        5.67350       -14.45736        -9.65192
   H        3.86225       -12.75271        -8.98761
   H        2.70983       -10.85445        -8.24623
   H        1.88355        -8.76091        -6.99791
   H        2.60589        -7.13108        -5.08504
   H        5.29656        -7.75617        -4.04527
   H        2.43330        -4.30241        -1.10017
   H        0.82282        -5.73359        -2.54745
   H        2.16212        -8.43772        -3.07546
   H       -0.78569        -7.58392        -3.27844
   H       -2.19651        -9.51793        -4.44357
   H       -1.81966       -11.75766        -5.65737
   H       -0.81755       -13.68316        -6.78710
   H        0.77462       -15.53191        -7.59645
   H        3.12285       -16.27200        -7.47658
   H        4.65460       -13.99328        -4.84866
   H        6.98792       -14.12887        -4.17273
   H        5.24655       -17.13255        -7.72943
   H        9.57707       -14.62271        -3.90469
   H       11.86847       -15.48907        -3.99210
   H       10.75366       -18.29131        -7.05105
   H       13.07578       -17.92334        -6.49757
   H       13.95881       -18.11025        -0.32209
   H       17.47892       -19.44723        -3.62737
   H       15.75313       -19.08655         1.59871
*
