# ORCA input file
# SCF done       -230.959167820835          0.000434636173
! CAM-B3LYP def2-SVP def2/J RIJCOSX Grid4 TightSCF
%maxcore 5000
%tddft
    Mode sTDDFT
    Ethresh 5.0
    maxcore 5000
end

%pal
  nprocs 6
  end
* xyz 0 1
   C       -4.93877         1.29317        -6.76153
   C       -4.50148         2.00234        -7.85101
   C       -3.63491         1.48159        -8.83602
   N       -2.93668         1.12531        -9.67477
   C       -4.81180         3.34231        -8.16748
   N       -4.99331         4.42358        -8.51080
   C       -4.54737        -0.07766        -6.45345
   C       -5.12480        -0.44496        -5.21555
   C       -4.93971        -1.68023        -4.64395
   C       -4.14527        -2.60339        -5.33086
   C       -3.57416        -2.23055        -6.57104
   C       -3.76086        -0.98009        -7.14660
   S       -2.63307        -3.52169        -7.25465
   C       -3.01332        -4.52954        -5.88350
   C       -3.80434        -3.93294        -4.96037
  Br       -2.33234        -6.27499        -5.80119
   C       -5.92226         0.67848        -4.68690
   O       -6.53597         0.66825        -3.64053
   C       -5.82048         1.75618        -5.69875
   C       -6.46798         2.96083        -5.72818
   C       -7.32477         3.59036        -4.80012
   C       -7.72390         3.27891        -3.52271
   C       -8.58509         4.22724        -2.94476
   C       -8.88450         5.30691        -3.82456
   S       -8.03307         5.11596        -5.32803
   C       -9.73289         6.33552        -3.45197
   S      -10.16227         7.73691        -4.43768
   C      -10.29054         7.08638        -6.12986
   C      -10.24497         6.30163        -2.14154
   C       -9.91953         5.24416        -1.25053
   C       -9.11292         4.18652        -1.63409
   S       -8.60173         2.83349        -0.63348
   C       -9.98628         2.52815         0.50327
   S      -10.64352         5.52172         0.31607
   C      -11.38040         7.00696        -0.23614
   C      -11.08018         7.27055        -1.54020
   C      -12.17947         7.77330         0.65859
   C      -12.43122         7.52678         1.97558
   C      -13.25958         8.49461         2.58941
   C      -13.66854         9.50416         1.67972
   S      -12.97764         9.22715         0.10062
   C      -14.48849        10.54977         2.06952
   S      -15.04653        11.85960         1.02424
   C      -15.45319        11.02716        -0.54116
   C      -14.85141        10.60938         3.42692
   C      -14.41662         9.61544         4.34252
   C      -13.64824         8.53595         3.93966
   S      -13.04043         7.25219         4.98929
   C      -14.40606         6.93734         6.14780
   S      -14.96266         9.98975         5.95555
   C      -15.77333        11.43495         5.39806
   C      -15.62471        11.61417         4.05312
   C      -16.47669        12.26250         6.32184
   C      -17.20991        13.38316         6.05188
   C      -17.77559        13.98092         7.20065
   C      -17.45242        13.26761         8.38504
   S      -16.45882        11.88500         8.03092
   C      -17.89021        13.67441         9.62935
   S      -17.52738        12.79446        11.12541
   C      -18.35787        11.21040        10.78679
   C      -18.64128        14.85775         9.69329
   C      -18.96942        15.57687         8.51079
   C      -18.56739        15.14199         7.25805
   S      -18.91169        15.96125         5.73283
   C      -20.63555        16.51287         5.91534
   S      -19.88793        17.00237         8.90297
   C      -19.89125        16.59655        10.60777
   C      -19.17453        15.45392        10.85105
   C      -20.54836        17.46174        11.51541
   C      -20.96302        17.21997        12.78779
   C      -21.10183        16.01524        13.57991
   C      -21.38333        14.75393        13.12259
   C      -21.58754        13.63869        13.96131
   N      -21.74413        12.69246        14.59202
   C      -21.58741        14.42289        11.76840
   N      -21.80233        14.09295        10.68984
   C      -21.15216        16.42432        14.98051
   C      -21.28754        17.83449        15.04017
   C      -21.25989        18.38355        13.67111
   O      -21.40181        19.53352        13.32697
   C      -21.40482        18.51534        16.22752
   C      -21.37499        17.77152        17.41177
   C      -21.22274        16.36555        17.34225
   C      -21.11292        15.67545        16.14121
   S      -21.19854        15.64684        18.92336
   C      -21.39624        17.22117        19.64688
   C      -21.47396        18.23486        18.75219
  Br      -21.47959        17.37734        21.51350
   H       -5.39436        -1.92488        -3.69679
   H       -3.30475        -0.74948        -8.09436
   H       -4.13501        -4.40906        -4.05541
   H       -6.31829         3.55502        -6.62219
   H       -7.40475         2.38889        -3.01172
   H      -10.94273         7.77912        -6.65330
   H      -10.73909         6.09932        -6.10423
   H       -9.31684         7.06162        -6.60862
   H       -9.87156         1.49430         0.81539
   H      -10.92499         2.65489        -0.02451
   H       -9.93121         3.18337         1.36662
   H      -11.43463         8.14141        -2.06194
   H      -12.02733         6.68257         2.50543
   H      -16.20081        11.65503        -1.01630
   H      -15.86795        10.04776        -0.32939
   H      -14.57578        10.95026        -1.17533
   H      -14.26866         5.91374         6.48311
   H      -15.35118         7.03501         5.62491
   H      -14.35666         7.61444         6.99466
   H      -16.03821        12.44485         3.51227
   H      -17.34501        13.78368         5.06452
   H      -18.31178        10.64940        11.71436
   H      -17.84100        10.67339         9.99812
   H      -19.39125        11.40725        10.51785
   H      -21.02986        16.56632         4.90502
   H      -20.67840        17.49173         6.38241
   H      -21.18738        15.77963         6.49332
   H      -18.98344        15.06198        11.83393
   H      -20.69489        18.48321        11.17638
   H      -21.51589        19.58814        16.24279
   H      -20.99142        14.60485        16.13756
   H      -21.59565        19.26742        19.02410
*
