# ORCA input file
# SCF done       -219.439783593756          0.001355061169
! CAM-B3LYP def2-SVP def2/J RIJCOSX Grid4 TightSCF
%maxcore 5000
%tddft
    Mode sTDDFT
    Ethresh 5.0
    maxcore 5000
end

%pal
  nprocs 6
  end
* xyz 0 1
   C       -1.39198        -0.02514         6.94001
   C       -0.78842        -1.16288         6.47185
   C        0.23778        -1.85050         7.15445
   N        1.06967        -2.45718         7.66155
   C       -1.08038        -1.80794         5.25106
   N       -1.25042        -2.38548         4.27323
   C       -1.05504         0.65632         8.18680
   C       -1.85403         1.82136         8.29971
   C       -1.78082         2.67460         9.37431
   C       -0.87564         2.36097        10.39329
   C       -0.07781         1.19769        10.27250
   C       -0.14991         0.33823         9.18216
   S        0.96768         0.99527        11.64531
   C        0.32476         2.45332        12.35558
   C       -0.62198         3.06350        11.60326
  Br        0.96096         3.02903        14.02374
   C       -2.73070         1.91809         7.12312
   O       -3.52896         2.81013         6.88866
   C       -2.45752         0.73165         6.30542
   C       -3.14941         0.36580         5.17959
   C       -4.22042         0.99771         4.52821
   C       -4.87260         0.40423         3.43981
   C       -5.92219         1.16930         2.96982
   C       -6.06498         2.38009         3.69021
   S       -4.93140         2.55678         4.94772
   C       -7.17512         3.07626         3.15488
   C       -7.73900         2.31442         2.11533
   C       -6.96053         1.09666         1.95366
   C       -7.16772         0.10488         1.04137
   C       -6.34843        -1.04231         0.97259
   N       -5.69219        -1.97992         0.91147
   C       -8.22012         0.16555         0.10318
   N       -9.07718         0.22329        -0.65628
   C       -8.86585         2.91100         1.55363
   C       -9.15621         4.12604         2.14926
   S       -8.01824         4.53842         3.42215
   C      -10.24115         4.98901         1.85213
   C      -10.46649         6.26566         2.33447
   C      -11.65568         6.80480         1.84481
   C      -12.34467         5.92227         0.99354
   S      -11.51975         4.44366         0.77579
   C      -13.54695         6.54263         0.57805
   C      -13.61416         7.82553         1.14929
   C      -12.42365         8.03432         1.96104
   C      -12.10052         9.14620         2.68118
   C      -10.91853         9.22307         3.44810
   N       -9.95967         9.28268         4.07314
   C      -12.92829        10.28887         2.70245
   N      -13.60459        11.21461         2.71378
   C      -14.78485         8.50541         0.82059
   C      -15.62154         7.74692         0.01922
   S      -14.92780         6.16989        -0.35070
   C      -16.91592         8.09099        -0.46556
   C      -17.73366         7.17911        -1.09710
   C      -19.02328         7.44381        -1.54012
   C      -19.62369         8.76723        -1.38079
   C      -18.99478         9.81928        -0.80770
   S      -17.40574         9.74977        -0.17265
   C      -20.93435         8.65409        -1.91918
   C      -21.15809         7.35245        -2.37806
   C      -22.46229         7.20771        -2.90000
   C      -23.16912         8.36644        -2.82210
   S      -22.29446         9.67983        -2.12079
   C      -19.96267         6.57351        -2.15008
   C      -19.72813         5.21606        -2.40832
   C      -20.62820         4.31570        -2.91718
   C      -20.30629         2.96497        -3.08043
   C      -21.13779         1.93606        -3.45695
   C      -20.54907         0.67361        -3.94757
   O      -19.38822         0.33234        -3.89607
   C      -21.67842        -0.06993        -4.56110
   C      -22.86859         0.65800        -4.37558
   C      -24.04961         0.19385        -4.92501
   C      -24.05604        -1.01369        -5.62563
   C      -22.86601        -1.74619        -5.77506
   C      -21.66119        -1.26147        -5.24727
   C      -22.80598        -2.97825        -6.46692
   N      -22.71235        -3.98942        -7.00189
   C      -25.37934        -1.40716        -6.22599
   O      -26.20638        -0.57636        -6.47888
   O      -25.61734        -2.70165        -6.45025
   C      -22.57059         1.84378        -3.56530
   C      -23.51345         2.55894        -2.86885
   C      -23.22752         3.50761        -1.86542
   N      -23.07322         4.25894        -1.01052
   C      -24.90463         2.34906        -2.97742
   N      -26.04649         2.24199        -3.02005
   H       -2.40491         3.55273         9.42910
   H        0.47766        -0.53614         9.14091
   H       -1.12283         3.97048        11.88935
   H       -2.86897        -0.57145         4.71395
   H       -4.57270        -0.55011         3.04389
   H       -9.45416         2.49854         0.75361
   H       -9.78888         6.76188         3.00587
   H      -15.03624         9.49580         1.15509
   H      -17.33279         6.18278        -1.22916
   H      -19.46011        10.78626        -0.70077
   H      -22.88449         6.30911        -3.30785
   H      -24.17918         8.53655        -3.13984
   H      -18.75221         4.83442        -2.13396
   H      -21.60971         4.65424        -3.20075
   H      -19.26441         2.68161        -2.96724
   H      -24.97932         0.73588        -4.84794
   H      -20.74162        -1.81141        -5.37960
   H      -24.87666        -3.29859        -6.26762
*
