# ORCA input file
# SCF done       -194.321888281182          0.000972081352
! CAM-B3LYP def2-SVP def2/J RIJCOSX Grid4 TightSCF
%maxcore 5000
%tddft
    Mode sTDDFT
    Ethresh 5.0
    maxcore 5000
end

%pal
  nprocs 6
  end
* xyz 0 1
   C        3.34615        -3.13234         0.23046
   C        2.48276        -3.24706         1.29033
   C        2.87853        -3.56673         2.60034
   N        3.13949        -3.88453         3.67309
   C        1.09733        -2.99909         1.18592
   N       -0.02119        -2.74490         1.15605
   C        4.80133        -3.07032         0.32582
   C        5.30826        -2.47485        -0.84483
   C        6.65845        -2.24561        -1.01217
   C        7.52503        -2.62670         0.00609
   C        7.02813        -3.22870         1.16906
   C        5.66587        -3.44985         1.33874
  Cl        8.11090        -3.70514         2.41256
  Cl        9.21023        -2.35697        -0.16490
   C        4.19456        -2.18154        -1.77647
   O        4.24900        -1.63358        -2.84965
   C        2.99035        -2.77037        -1.12725
   C        1.83986        -2.95223        -1.83082
   C        0.77164        -3.83549        -1.49557
   C        0.97184        -5.02503        -0.86629
   C       -0.08545        -5.86547        -0.44684
   C       -1.38682        -5.60725        -0.76007
   C       -1.65776        -4.58181        -1.84381
   C       -0.64261        -3.42116        -1.86017
   N       -0.61037        -2.71854        -3.11930
   C       -0.96771        -3.32009        -4.16472
   C       -1.42153        -4.72439        -4.15206
   N       -1.70811        -5.32707        -3.08687
   F       -1.45705        -5.37923        -5.30603
   F       -0.91866        -2.68836        -5.32919
   C       -2.49131        -6.35452        -0.24627
   S       -3.92141        -6.36879        -1.31466
   C       -4.45454        -8.03054        -1.11880
   C       -4.99558        -8.78299        -2.11364
   S       -5.43544       -10.34991        -1.56022
   C       -4.86360        -9.99733         0.02203
   C       -4.37809        -8.73031         0.11115
   S       -3.76876        -8.00282         1.59098
   C       -2.47138        -6.95835         0.99053
   C       -1.46254        -6.68073         1.96370
   C       -1.21107        -7.46283         3.04590
   C       -0.23068        -7.24545         4.05162
   C        0.00252        -8.21677         4.98713
   C        1.00311        -8.13249         5.97866
   C        1.69369        -6.97833         6.21717
   C        1.27404        -5.73489         5.45337
   C        0.67129        -6.02426         4.06352
   N       -0.01307        -4.86327         3.53520
   C       -0.57879        -4.08601         4.34880
   C       -0.48562        -4.26507         5.81177
   N        0.37151        -5.02183         6.33156
   F       -1.34420        -3.60668         6.57854
   F       -1.24647        -3.03847         3.89089
   C        2.64005        -6.74081         7.24336
   C        3.38080        -7.57953         8.03426
   C        4.27696        -7.10387         9.08064
   C        4.41518        -5.82139         9.54170
   C        5.29929        -5.44838        10.57856
   N        5.99634        -5.07079        11.40821
   C        3.72456        -4.67451         9.08892
   N        3.23054        -3.67728         8.80521
   C        5.00698        -8.25710         9.60248
   C        4.56997        -9.40923         8.92957
   C        3.53303        -9.05162         7.94019
   O        2.96732        -9.83315         7.20509
   C        5.08373       -10.65952         9.20836
   C        6.06330       -10.76543        10.18688
   C        6.50868        -9.62286        10.86195
   C        5.98650        -8.36596        10.57702
  Cl        7.72432        -9.76456        12.06606
  Cl        6.72883       -12.30157        10.56650
   H        7.03008        -1.77898        -1.91068
   H        5.31576        -3.91682         2.24500
   H        1.74816        -2.39189        -2.75517
   H        1.98307        -5.34533        -0.65769
   H        0.17008        -6.73889         0.13302
   H       -2.66056        -4.15795        -1.69820
   H       -0.94017        -2.68009        -1.10345
   H       -5.17220        -8.49472        -3.12949
   H       -4.93214       -10.72949         0.80035
   H       -0.90184        -5.76661         1.82911
   H       -1.76520        -8.38812         3.15126
   H       -0.59199        -9.11838         4.95495
   H        1.20095        -9.01183         6.56864
   H        2.14472        -5.07914         5.31191
   H        1.49337        -6.22874         3.36201
   H        2.80864        -5.68334         7.40890
   H        4.73024       -11.52935         8.67755
   H        6.35844        -7.51194        11.11815
*
