# ORCA input file
# SCF done       -128.455890303056          0.000387938269
! CAM-B3LYP def2-SVP def2/J RIJCOSX Grid4 TightSCF
%maxcore 5000
%tddft
    Mode sTDDFT
    Ethresh 5.0
    maxcore 5000
end

%pal
  nprocs 6
  end
* xyz 0 1
   C       -0.15985        -3.04408         0.91752
   C        0.62864        -2.51459        -0.05758
   C        0.52332        -1.11059        -0.09604
   C       -0.35903        -0.61434         0.87169
   S       -1.04992        -1.85736         1.81521
   C       -0.40330         0.80439         0.76355
   C        0.45163         1.19647        -0.27702
   C        1.06553         0.00295        -0.84980
   C        1.96551        -0.04442        -1.87447
   C        2.41950         1.12036        -2.52706
   N        2.79126         2.06649        -3.05825
   C        2.50388        -1.25923        -2.34758
   N        2.94492        -2.24409        -2.73563
   C        0.48413         2.57679        -0.46745
   C       -0.33875         3.24618         0.42408
   S       -1.16335         2.13523         1.51019
   C       -0.57453         4.63752         0.57034
   C       -0.03639         5.59810        -0.22087
   C       -0.24770         6.99073        -0.05515
   C       -0.96603         7.66751         0.91754
   C       -0.91080         9.04917         0.74703
   C       -0.14731         9.43690        -0.36931
   S        0.50068         8.09680        -1.20207
   C       -0.14060        10.85159        -0.44330
   C       -0.89588        11.36111         0.62884
   C       -1.40752        10.24526         1.40901
   C       -2.18323        10.30742         2.52968
   C       -2.59809        11.53456         3.08740
   N       -2.93558        12.53131         3.54327
   C       -2.61885         9.14856         3.20521
   N       -2.97433         8.20715         3.75535
   C       -0.93481        12.75358         0.65625
   C       -0.21684        13.31801        -0.38587
   S        0.51053        12.09094        -1.41751
   C        0.00934        14.68319        -0.69667
   C       -0.43487        15.72700         0.04591
   C       -0.18410        17.09161        -0.25049
   C        0.50094        17.65462        -1.31529
   C        0.54616        19.04526        -1.23412
   C       -0.10708        19.55205        -0.10104
   S       -0.78147        18.31682         0.86116
   C        0.00866        20.97085        -0.11215
   C        0.73154        21.35297        -1.24914
   C        1.09243        20.16369        -1.99577
   C        1.79250        20.09486        -3.16511
   C        2.27656        21.24569        -3.82136
   N        2.67371        22.17751        -4.35896
   C        2.07656        18.86649        -3.79685
   N        2.30807        17.86753        -4.31047
   C        0.89762        22.74890        -1.33625
   C        0.31002        23.38428        -0.28556
   S       -0.46030        22.30993         0.83636
   H       -0.28137        -4.07677         1.17626
   H        1.24862        -3.10257        -0.70929
   H        1.07790         3.07557        -1.21049
   H       -1.23258         4.91973         1.37996
   H        0.60670         5.31476        -1.04198
   H       -1.49389         7.17314         1.71159
   H       -1.45707        13.33324         1.39436
   H        0.59348        14.87172        -1.58621
   H       -1.01176        15.53875         0.94028
   H        0.94121        17.07586        -2.10563
   H        1.41999        23.25770        -2.12560
   H        0.27674        24.43714        -0.08916
*
