# ORCA input file
# SCF done       -177.140802529631          0.000439183091
! CAM-B3LYP def2-SVP def2/J RIJCOSX Grid4 TightSCF
%maxcore 5000
%tddft
    Mode sTDDFT
    Ethresh 5.0
    maxcore 5000
end

%pal
  nprocs 6
  end
* xyz 0 1
   C        4.53486        -1.66845         0.48354
   C        4.67695        -1.01975         1.67265
   C        4.05653         0.24369         1.64306
   C        3.45371         0.51390         0.40884
   S        3.64730        -0.76815        -0.70062
   C        2.85405         1.80493         0.46857
   C        3.08437         2.34234         1.74219
   C        3.84635         1.37680         2.52531
   C        4.26336         1.51545         3.81649
   C        3.98605         2.67398         4.57247
   N        3.75999         3.61500         5.18735
   C        4.99546         0.51027         4.48299
   N        5.58988        -0.30390         5.02913
   C        2.53358         3.61440         1.90338
   C        1.88483         4.04365         0.76120
   S        1.95883         2.85684        -0.53309
   C        1.20664         5.27475         0.56404
   C        0.52093         5.69083        -0.56259
   C       -0.03267         6.96051        -0.39404
   C        0.23871         7.51229         0.86748
   S        1.17182         6.47126         1.84879
   C       -0.36897         8.79230         0.94713
   C       -1.03128         9.04556        -0.27206
   C       -0.83851         7.90710        -1.15358
   C       -1.30863         7.75041        -2.42427
   C       -2.08676         8.73565        -3.06857
   N       -2.72083         9.52801        -3.60184
   C       -1.04712         6.58872        -3.18110
   N       -0.83517         5.64473        -3.79647
   C       -1.67148        10.28390        -0.28543
   C       -1.48774        10.95651         0.90610
   S       -0.52217        10.06917         2.06336
   C       -1.96881        12.24734         1.27825
   N       -2.75878        12.92885         0.42976
   C       -3.17995        14.09527         0.84136
   C       -2.87322        14.55572         2.14125
   N       -2.05709        13.82436         2.90377
   N       -1.58316        12.71694         2.46992
   C       -3.40799        15.79082         2.67901
   C       -2.74125        16.55452         3.62770
   F       -1.52333        16.19948         4.04720
   C       -3.28286        17.73445         4.16311
   F       -2.55867        18.38883         5.08263
   C       -4.54623        18.21421         3.84284
   C       -5.22052        17.48026         2.84308
   C       -4.65833        16.30051         2.26904
   N       -5.52891        15.85734         1.34900
   N       -6.50261        16.72311         1.38317
   N       -6.38653        17.70744         2.22653
   C       -7.65053        16.58628         0.54224
   C       -5.07905        19.40241         4.45269
   C       -6.37434        19.57320         4.81265
   C       -6.98158        20.80270         5.30195
   C       -6.44730        22.05829         5.21900
   C       -7.09226        23.22503         5.68554
   N       -7.56298        24.20598         6.04904
   C       -5.20382        22.37079         4.62539
   N       -4.22203        22.70705         4.13617
   C       -8.30745        20.46801         5.80884
   C       -8.54717        19.09942         5.59404
   C       -7.36494        18.46988         4.96883
   O       -7.21580        17.29208         4.74195
   C       -9.73229        18.50115         5.97261
   C      -10.70656        19.28735         6.57401
   C      -10.47513        20.65118         6.79467
   C       -9.27844        21.24893         6.41646
  Cl      -11.68311        21.60869         7.54911
  Cl      -12.19680        18.58272         7.05071
   H        4.90191        -2.63958         0.21807
   H        5.19823        -1.42960         2.51824
   H        2.59146         4.20771         2.79824
   H        0.43580         5.08801        -1.44888
   H       -2.24126        10.69692        -1.09756
   H       -3.76315        14.68714         0.15090
   H       -7.46135        15.77985        -0.16217
   H       -7.83218        17.52237         0.01518
   H       -8.52516        16.35103         1.15019
   H       -4.35722        20.18470         4.65393
   H       -9.89451        17.44839         5.80333
   H       -9.13191        22.29903         6.60944
*
