# ORCA input file
# SCF done       -209.903698772384          0.000932608180
! CAM-B3LYP def2-SVP def2/J RIJCOSX Grid4 TightSCF
%maxcore 5000
%tddft
    Mode sTDDFT
    Ethresh 5.0
    maxcore 5000
end

%pal
  nprocs 6
  end
* xyz 0 1
   C       -2.74851         6.06071        -3.75559
   C       -2.16244         5.41045        -2.69728
   C       -2.87525         4.91686        -1.58771
   N       -3.39856         4.51414        -0.64813
   C       -0.79045         5.09895        -2.62402
   N        0.31546         4.80305        -2.52819
   C       -4.18849         6.14948        -3.97991
   C       -4.41519         6.40085        -5.36423
   C       -5.67481         6.48828        -5.88111
   C       -6.78499         6.33655        -5.01927
   C       -6.56499         6.10620        -3.63075
   C       -5.24766         6.01354        -3.12457
   C       -7.68068         5.96570        -2.78096
   C       -8.95345         6.04341        -3.27726
   C       -9.16914         6.26768        -4.64498
   C       -8.10794         6.41102        -5.49721
   C       -3.11797         6.55089        -6.04977
   O       -2.91490         6.74175        -7.22710
   C       -2.09642         6.49907        -4.96818
   C       -0.81721         6.89502        -5.24549
   C        0.16232         7.32922        -4.32950
   S       -0.33062         8.00530        -2.80543
   C        1.28503         8.13678        -2.22958
   C        2.19532         7.61699        -3.16620
   C        1.57033         7.26987        -4.41005
   C        2.37836         6.82256        -5.48309
   C        1.90543         6.62798        -6.88381
   O        2.16156         5.67028        -7.55208
   O        1.22454         7.67496        -7.40675
   C        3.72228         6.60273        -5.25847
   C        4.30663         6.81705        -4.01411
   C        3.56862         7.31474        -2.96082
   O        4.18108         7.44245        -1.76960
   C        1.50083         8.71604        -0.94864
   S        0.36790         8.36042         0.31803
   C        1.25806         9.25219         1.49252
   C        2.41861         9.79299         0.92670
   C        2.51422         9.56808        -0.48432
   C        3.55400        10.20927        -1.21500
   C        3.59875        10.35955        -2.68381
   O        4.60867        10.48767        -3.32722
   O        2.38319        10.45445        -3.25385
   C        4.54930        10.85465        -0.51526
   C        4.54251        10.93100         0.87885
   C        3.48676        10.43552         1.60877
   O        3.44325        10.51190         2.95506
   C        0.77116         9.33673         2.82780
   S        0.12106         7.91716         3.56496
   C       -0.19532         8.72386         5.06330
   C        0.26216        10.04878         5.00517
   C        0.72865        10.42647         3.71007
   C        1.05104        11.78686         3.45475
   C        1.22103        12.32202         2.09207
   O        0.66403        11.91689         1.10169
   O        2.04511        13.38492         2.04929
   C        1.07086        12.66501         4.51596
   C        0.79279        12.24877         5.81881
   C        0.38828        10.96027         6.08747
   O        0.16978        10.52852         7.34520
   C       -0.85693         8.01681         6.08957
   C       -1.72566         8.55607         6.99722
   C       -2.27928         7.87971         8.15042
   C       -1.79989         6.72589         8.71610
   C       -2.34718         6.12811         9.86940
   N       -2.74741         5.59912        10.80674
   C       -0.67428         6.01399         8.25253
   N        0.24298         5.39461         7.94601
   C       -3.36168         8.70248         8.67690
   C       -3.43791         9.89445         7.90179
   C       -2.42069         9.85863         6.83547
   O       -2.26690        10.68927         5.96274
   C       -4.35710        10.86818         8.16522
   C       -5.25663        10.69434         9.24126
   C       -5.19107         9.50167        10.01754
   C       -4.23077         8.50761         9.71685
   C       -6.09730         9.33595        11.08427
   C       -7.02296        10.30154        11.37358
   C       -7.08590        11.47587        10.60913
   C       -6.22103        11.66822         9.56595
   H       -5.82434         6.66874        -6.93520
   H       -5.10898         5.84713        -2.06770
   H       -7.50924         5.78909        -1.72918
   H       -9.80152         5.93126        -2.61832
   H      -10.18001         6.32623        -5.02006
   H       -8.26781         6.58374        -6.55151
   H       -0.58791         6.91869        -6.30532
   H        1.11569         8.39954        -6.77736
   H        4.32588         6.24038        -6.07607
   H        5.34579         6.58976        -3.84572
   H        3.54831         7.64658        -1.06890
   H        2.48995        10.65326        -4.19721
   H        5.34640        11.32149        -1.07254
   H        5.36193        11.41652         1.38937
   H        4.23577        10.95468         3.28698
   H        2.06475        13.74403         1.14816
   H        1.30934        13.70145         4.33605
   H        0.87406        12.95997         6.62942
   H        0.28925        11.25853         7.96741
   H       -0.70617         6.94385         6.09026
   H       -4.39722        11.76232         7.56055
   H       -4.21279         7.61114        10.31616
   H       -6.04443         8.43039        11.67062
   H       -7.71222        10.16537        12.19338
   H       -7.82327        12.22699        10.85007
   H       -6.26563        12.57011         8.97282
*
