# ORCA input file
# SCF done       -212.095494094963          0.000450032256
! CAM-B3LYP def2-SVP def2/J RIJCOSX Grid4 TightSCF
%maxcore 5000
%tddft
    Mode sTDDFT
    Ethresh 5.0
    maxcore 5000
end

%pal
  nprocs 6
  end
* xyz 0 1
   C       -3.46520         1.94227        -0.38373
   C       -4.58084         2.41388        -1.02628
   C       -5.74012         1.64594        -1.26314
   N       -6.71629         1.08241        -1.48252
   C       -4.75600         3.72081        -1.52588
   N       -4.98800         4.76299        -1.95016
   C       -3.30167         0.58598         0.13199
   C       -2.02553         0.48688         0.75561
   C       -1.58027        -0.67513         1.31529
   C       -2.40697        -1.82071         1.27237
   C       -3.68714        -1.73076         0.65434
   C       -4.12144        -0.51028         0.08631
   C       -4.50450        -2.87867         0.61720
   C       -4.07895        -4.05974         1.16186
   C       -2.81738        -4.14732         1.76871
   C       -1.99905        -3.05156         1.82244
   C       -1.33533         1.78310         0.65723
   O       -0.27052         2.08088         1.16410
   C       -2.23062         2.65853        -0.12874
   C       -1.95175         3.94070        -0.50988
   C       -0.72552         4.63532        -0.45297
   S       -0.89827         6.36238        -0.31547
   C        0.79117         6.61686        -0.11593
   C        1.48665         5.39441        -0.14900
   C        0.63496         4.27769        -0.44969
   C        1.23646         3.02456        -0.74247
   C        0.51446         1.92013        -1.39214
   O       -0.52983         2.01464        -1.99605
   O        1.16299         0.74575        -1.31437
   C        2.59265         2.87468        -0.51455
   C        3.37741         3.90516        -0.01276
   C        2.85340         5.16808         0.17031
   O        3.66494         6.11383         0.67832
   C        1.29145         7.95176        -0.06724
   C        2.45867         8.44382        -0.63017
   C        2.57016         9.82581        -0.48029
   C        1.47846        10.39742         0.19691
   S        0.30892         9.23404         0.64048
   C        1.69009        11.79664         0.29480
   C        2.91520        12.10457        -0.32354
   C        3.51442        10.87729        -0.82191
   C        4.71557        10.74159        -1.45218
   C        5.18405         9.49039        -1.90718
   N        5.55842         8.47333        -2.28099
   C        5.58220        11.83594        -1.66575
   N        6.30321        12.71465        -1.81201
   C        3.21485        13.46380        -0.29347
   C        2.22916        14.19770         0.34462
   S        0.92129        13.18405         0.93049
   C        2.25702        15.59516         0.59684
   S        1.63698        16.23905         2.07023
   C        2.27850        17.82086         1.75716
   C        3.01897        17.81616         0.56330
   C        2.91502        16.58589        -0.15159
   C        3.43700        16.49501        -1.46825
   C        3.05626        15.45980        -2.45306
   O        3.74572        15.09136        -3.36850
   O        1.79250        15.02407        -2.29550
   C        4.22795        17.52433        -1.92876
   C        4.50558        18.64197        -1.13984
   C        3.90941        18.81743         0.08980
   O        4.20106        19.87182         0.87821
   C        1.99206        18.85314         2.67099
   C        1.90092        20.18555         2.37169
   C        1.82734        21.27323         3.32194
   C        2.02941        21.18834         4.67689
   C        1.98528        22.29213         5.55275
   N        1.96030        23.14831         6.31772
   C        2.32834        20.00383         5.38043
   N        2.58607        19.08493         6.01997
   C        1.59586        22.50508         2.57518
   C        1.52994        22.18784         1.18878
   C        1.69531        20.73457         1.00719
   O        1.57676        20.12200        -0.03524
   C        1.33022        23.14604         0.23793
   C        1.19655        24.49556         0.63603
   C        1.25765        24.82112         2.02141
   C        1.45525        23.80426         2.98447
   C        1.12012        26.16950         2.40835
   C        0.93386        27.15107         1.47311
   C        0.87459        26.82936         0.10914
   C        1.00342        25.52975        -0.30045
   H       -0.60551        -0.72145         1.77840
   H       -5.09496        -0.47860        -0.37611
   H       -5.47491        -2.80636         0.14835
   H       -4.71244        -4.93345         1.12769
   H       -2.49707        -5.08700         2.19352
   H       -1.02657        -3.11256         2.28906
   H       -2.77892         4.54374        -0.86530
   H        0.65825         0.06812        -1.79017
   H        3.04859         1.91987        -0.72054
   H        4.41579         3.74465         0.22638
   H        3.18572         6.93248         0.86156
   H        3.16037         7.83326        -1.17032
   H        4.11477        13.90481        -0.68189
   H        1.56313        14.42606        -3.02431
   H        4.63589        17.45550        -2.92533
   H        5.17902        19.39979        -1.51563
   H        4.81996        20.45832         0.42257
   H        1.77462        18.53222         3.68235
   H        1.27937        22.87898        -0.80747
   H        1.48746        24.08271         4.02576
   H        1.16715        26.41227         3.45980
   H        0.83109        28.18123         1.77958
   H        0.72592        27.61596        -0.61549
   H        0.95757        25.27598        -1.34957
*
