# ORCA input file
# SCF done       -204.071139899649          0.000605203662
! CAM-B3LYP def2-SVP def2/J RIJCOSX Grid4 TightSCF
%maxcore 5000
%tddft
    Mode sTDDFT
    Ethresh 5.0
    maxcore 5000
end

%pal
  nprocs 6
  end
* xyz 0 1
   C        3.50121         1.94723         1.46096
   O        4.66529         1.58774         1.42643
   C        2.98444         3.30714         1.45734
   C        1.59588         3.31370         1.49907
   C        1.06185         4.61632         1.49736
   C        2.05559         5.54985         1.45523
   S        3.64467         4.88257         1.41578
   C        1.11984         1.94338         1.53005
   C       -0.20109         1.58332         1.55521
   C       -1.22925         2.55044         1.56358
   N       -2.07991         3.32009         1.57298
   C       -0.70445         0.26706         1.56881
   N       -1.18546        -0.77557         1.57706
   C        2.29936         1.09031         1.51836
   C        2.29158        -0.27709         1.57246
   C        3.35178        -1.19842         1.57270
   C        3.13246        -2.57788         1.65599
   C        4.30857        -3.30382         1.63905
   C        5.44800        -2.47187         1.53631
   S        5.07054        -0.81442         1.47008
   C        6.59478        -3.30468         1.52509
   C        6.19123        -4.64554         1.61978
   C        4.74052        -4.69248         1.69618
   C        3.95661        -5.80340         1.80377
   C        2.54947        -5.73100         1.87729
   N        1.40577        -5.68287         1.93814
   C        4.50558        -7.10178         1.85447
   N        4.95224        -8.15735         1.89385
   C        7.26552        -5.53877         1.61485
   C        8.48274        -4.89569         1.51562
   S        8.29082        -3.15067         1.42736
   C        9.80262        -5.47503         1.47917
   C       10.92132        -4.65656         1.26086
   C       12.17438        -5.21290         1.22469
   C       12.34850        -6.59644         1.40714
   C       11.24959        -7.41519         1.62639
   C        9.98985        -6.85304         1.66053
   C       13.76039        -6.89635         1.31776
   C       14.45767        -5.69872         1.07838
   C       13.50256        -4.53108         1.00081
   C       13.79201        -3.49187         2.10022
   C       13.75414        -4.08701         3.50263
   C       13.55736        -3.85036        -0.37990
   C       13.27430        -4.81301        -1.52691
   C       15.82314        -5.70289         0.94611
   C       16.53423        -6.91128         1.04914
   C       15.82201        -8.09553         1.29143
   C       14.44933        -8.09706         1.42562
   C       17.96594        -6.86850         0.89503
   C       18.81783        -7.91521         0.94862
   C       20.22724        -7.81268         0.78025
   C       21.00627        -6.69254         0.53582
   C       22.35871        -7.00589         0.42776
   C       22.62161        -8.37742         0.59033
   S       21.19629        -9.27394         0.87593
   C       24.01421        -8.58793         0.45632
   C       24.63806        -7.34609         0.21618
   C       23.61783        -6.31356         0.18793
   C       23.79401        -4.97678        -0.01754
   C       22.71136        -4.07255        -0.02129
   N       21.83006        -3.33874        -0.02032
   C       25.06742        -4.40796        -0.23200
   N       26.10062        -3.93901        -0.39573
   C       26.01857        -7.45365         0.08710
   C       26.45808        -8.76454         0.18303
   S       25.12356        -9.87611         0.50063
   C       27.80758        -9.18623         0.15304
   C       28.32838       -10.42417        -0.05417
   C       29.71886       -10.71688         0.42213
   O       30.54164        -9.91141         0.78895
   C       29.79329       -12.17395         0.38266
   C       28.64305       -12.72425        -0.17273
   C       27.76154       -11.64955        -0.58719
   C       26.77357       -11.77357        -1.52861
   C       26.37251       -13.03119        -2.02317
   N       26.02200       -14.04968        -2.41864
   C       26.14471       -10.68175        -2.15855
   N       25.64787        -9.81638        -2.72632
   C       28.68835       -14.12906        -0.23791
   C       29.85973       -14.60131         0.27728
   S       30.93067       -13.36849         0.83070
   H        0.01606         4.85922         1.52591
   H        1.94226         6.61628         1.44468
   H        1.32018        -0.75451         1.62962
   H        2.14415        -2.99716         1.72525
   H        7.15844        -6.60575         1.67310
   H       10.78417        -3.59396         1.11869
   H       11.37313        -8.47785         1.76954
   H        9.13623        -7.48798         1.83592
   H       13.05355        -2.69095         2.02630
   H       14.77634        -3.05620         1.91796
   H       12.77462        -4.50949         3.71584
   H       13.96399        -3.31641         4.24056
   H       14.49716        -4.87465         3.60714
   H       14.54764        -3.41025        -0.51251
   H       12.82652        -3.03932        -0.39836
   H       14.00217        -5.62131        -1.54014
   H       13.32787        -4.28693        -2.47704
   H       12.28165        -5.24737        -1.42996
   H       16.36326        -4.78543         0.76076
   H       16.35507        -9.02956         1.37483
   H       13.92015        -9.01972         1.61081
   H       18.37394        -5.88274         0.71484
   H       18.44823        -8.91508         1.12627
   H       20.60253        -5.70207         0.44063
   H       26.68889        -6.63369        -0.09797
   H       28.53433        -8.42086         0.41070
   H       27.90882       -14.75586        -0.62965
   H       30.16469       -15.62626         0.35972
*
