# ORCA input file
# SCF done       -177.559148544106          0.000971926921
! CAM-B3LYP def2-SVP def2/J RIJCOSX Grid4 TightSCF
%maxcore 5000
%tddft
    Mode sTDDFT
    Ethresh 5.0
    maxcore 5000
end

%pal
  nprocs 6
  end
* xyz 0 1
   C       -8.30349         5.02636        -8.33572
   C       -8.64226         4.20487        -7.29412
   C       -9.94298         3.67797        -7.17498
   N      -11.01601         3.28026        -7.12898
   C       -7.54204         3.98353        -6.41147
   C       -6.41539         4.66731        -6.85214
   S       -6.66894         5.56231        -8.30149
   S       -5.00244         4.48159        -5.86237
   C       -5.93970         3.45913        -4.82374
   C       -7.26027         3.26826        -5.21070
   C       -7.94941         2.41932        -4.29864
   C       -9.30024         2.05826        -4.42212
   N      -10.40484         1.76486        -4.51910
   C       -7.14144         1.99473        -3.25412
   S       -5.51291         2.63314        -3.37593
   C       -7.46421         1.15425        -2.15208
   S       -9.01356         0.38081        -1.96587
   C       -8.52880        -0.35488        -0.46827
   C       -7.21273        -0.00080        -0.14975
   C       -6.62459         0.84329        -1.10414
   C       -6.50770        -0.41386         0.99176
   N       -5.89092        -0.72449         1.90926
   C       -9.46296        -1.16303         0.22297
   C       -9.24413        -1.75378         1.42783
   C      -10.23021        -2.52874         2.08534
   N      -10.05035        -3.09349         3.32659
   C       -8.88476        -2.97187         4.16837
   C       -8.83968        -1.62705         4.88948
   C      -11.19793        -3.78555         3.76775
   O      -11.27254        -4.34465         4.83994
   C      -12.13261        -3.64099         2.67360
   C      -11.51440        -2.86414         1.66112
   C      -12.45680        -2.73445         0.57763
   O      -12.38741        -2.19087        -0.50792
   N      -13.60344        -3.42850         1.01754
   C      -14.73166        -3.56064         0.12800
   C      -15.67718        -2.36443         0.22809
   C      -13.42231        -3.96656         2.27245
   C      -14.33327        -4.71967         3.06868
   C      -15.67532        -4.75342         2.96085
   N      -16.51291        -5.48406         3.77864
   C      -17.88030        -5.28363         3.84304
   C      -18.60259        -4.27612         3.03569
   C      -18.39831        -6.15059         4.76232
   C      -17.32791        -6.94834         5.30237
   C      -16.09981        -6.54126         4.66426
   O      -14.97007        -6.94794         4.76477
   C      -17.83863        -7.82080         6.21690
   C      -17.14588        -8.84067         7.02996
   N      -19.20608        -7.61831         6.27268
   C      -19.62734        -6.55640         5.38854
   O      -20.76633        -6.17262         5.31684
   C      -20.10783        -8.26674         7.08784
   C      -21.32181        -8.77607         6.68460
   C      -21.66903        -8.86244         5.32325
   N      -21.88425        -8.96897         4.20328
   C      -22.08356        -9.27462         7.78170
   C      -21.40270        -9.11934         8.98100
   S      -19.86288        -8.36507         8.82158
   S      -22.22514        -9.72428        10.38330
   C      -23.52977       -10.19270         9.34104
   C      -23.34232        -9.90560         7.99443
   C      -24.47015       -10.32412         7.22614
   C      -24.63091       -10.18718         5.83369
   N      -24.80765       -10.09797         4.70563
   C      -25.43564       -10.89735         8.00889
   S      -25.03558       -10.95630         9.68202
   H       -8.94629         5.34626        -9.13236
   H       -5.61799         1.21616        -1.02171
   H      -10.42122        -1.29444        -0.26352
   H       -8.29353        -1.63094         1.92340
   H       -7.98125        -3.11938         3.57080
   H       -8.96014        -3.77855         4.90306
   H       -8.79630        -0.80476         4.17875
   H       -7.96029        -1.58237         5.52534
   H       -9.72586        -1.50778         5.50822
   H      -15.24121        -4.50427         0.33420
   H      -14.32426        -3.59580        -0.88755
   H      -16.00804        -2.20238         1.25217
   H      -16.54509        -2.52152        -0.40679
   H      -15.16058        -1.46893        -0.10706
   H      -13.85069        -5.26321         3.86905
   H      -16.20518        -4.15540         2.23616
   H      -18.49255        -4.47747         1.96967
   H      -18.22700        -3.27248         3.23650
   H      -19.65785        -4.31847         3.29144
   H      -16.12890        -8.95343         6.66438
   H      -17.66657        -9.79647         6.97692
   H      -17.10759        -8.53553         8.07650
   H      -26.37643       -11.29249         7.67894
*
