# ORCA input file
# SCF done       -196.469480268068          0.000921655464
! CAM-B3LYP def2-SVP def2/J RIJCOSX Grid4 TightSCF
%maxcore 5000
%tddft
    Mode sTDDFT
    Ethresh 5.0
    maxcore 5000
end

%pal
  nprocs 6
  end
* xyz 0 1
   C        1.32430        -0.40671        -0.21624
   O        0.81881        -0.38941         0.88250
   C        2.36538         0.50359        -0.72641
   C        2.78980         0.08010        -1.99909
   C        3.77554         0.79180        -2.66350
   C        4.31491         1.91586        -2.04809
   C        3.88221         2.33128        -0.78503
   C        2.89987         1.61711        -0.11153
  Br        4.62850         3.86531         0.02169
  Br        5.65924         2.88493        -2.95284
   C        2.03324        -1.10858        -2.38133
   C        2.10142        -1.74993        -3.58801
   C        2.98151        -1.38205        -4.62949
   N        3.68027        -1.13198        -5.50386
   C        1.29127        -2.84453        -3.96224
   N        0.64862        -3.71893        -4.33470
   C        1.13381        -1.42481        -1.28617
   C        0.38818        -2.55667        -1.14313
   C       -0.61894        -2.76196        -0.16619
   O       -0.92155        -4.03101         0.19606
   C       -1.93836        -3.99774         1.07332
   C       -2.34691        -2.67187         1.26765
   C       -1.49744        -1.87542         0.46450
   C       -1.63170        -0.49464         0.24577
   N       -1.80973         0.61483         0.02277
   C       -3.39921        -2.25449         2.09418
   N       -4.26886        -1.95139         2.77612
   C       -2.47185        -5.15655         1.68950
   C       -2.06234        -6.41799         1.39415
   C       -2.50830        -7.64578         1.94341
   N       -3.30404        -7.88129         3.04080
   C       -3.89157        -6.93831         3.96443
   C       -5.25414        -6.44280         3.48496
   C       -3.51261        -9.25892         3.24589
   O       -4.17271        -9.70722         4.16021
   C       -2.77772        -9.90421         2.18009
   C       -2.16709        -8.89149         1.41157
   C       -1.42579        -9.52288         0.33784
   O       -0.75283        -9.07248        -0.56106
   N       -1.64879       -10.90328         0.53640
   C       -1.03253       -11.88873        -0.31939
   C        0.21132       -12.50034         0.32034
   C       -2.44336       -11.14461         1.62992
   C       -2.82833       -12.43274         2.07440
   C       -3.60632       -12.60836         3.17677
   C       -4.00026       -13.87155         3.67444
   O       -3.63892       -15.03196         3.07929
   C       -4.14429       -16.05311         3.79752
   C       -4.86385       -15.55559         4.88753
   C       -4.77218       -14.14485         4.80918
   C       -5.34522       -13.21780         5.69308
   N       -5.82738       -12.48600         6.43038
   C       -5.51264       -16.34116         5.85026
   N       -6.02894       -17.02189         6.61404
   C       -3.89950       -17.41254         3.48879
   C       -3.16881       -17.85400         2.43540
   C       -2.91403       -19.22409         2.16283
   C       -2.88170       -20.28835         3.01016
   C       -2.97688       -21.66042         2.42581
   O       -2.87064       -21.95534         1.26073
   C       -3.27834       -22.54548         3.56884
   C       -3.22959       -21.80176         4.76269
   C       -2.83371       -20.42773         4.45400
   C       -2.28686       -19.55888         5.35926
   C       -1.72279       -18.31013         5.03039
   N       -1.23644       -17.29169         4.82195
   C       -2.14441       -19.84691         6.73524
   N       -2.00120       -20.03389         7.85738
   C       -3.52212       -22.41511         5.96907
   C       -3.84134       -23.76851         5.96681
   C       -3.86635       -24.50520         4.77867
   C       -3.58746       -23.89032         3.56478
  Br       -4.28703       -26.34580         4.80662
  Br       -4.24712       -24.60684         7.60958
   H        4.13793         0.50058        -3.63611
   H        2.55526         1.92519         0.86338
   H        0.55987        -3.40589        -1.79266
   H       -3.25429        -4.94945         2.40149
   H       -1.31790        -6.54474         0.61716
   H       -3.19498        -6.11519         4.13515
   H       -4.02577        -7.48212         4.90461
   H       -5.19679        -6.01740         2.48528
   H       -5.62997        -5.68536         4.16672
   H       -5.95724        -7.27148         3.46473
   H       -0.75093       -11.36023        -1.23443
   H       -1.76381       -12.66196        -0.57065
   H        0.94479       -11.72360         0.52128
   H        0.65289       -13.22597        -0.35687
   H       -0.03177       -12.99708         1.25705
   H       -2.48491       -13.29490         1.52072
   H       -3.95658       -11.75563         3.74484
   H       -4.36334       -18.11491         4.16885
   H       -2.80535       -17.13519         1.71396
   H       -2.77188       -19.48492         1.11771
   H       -3.52148       -21.87524         6.90231
   H       -3.61090       -24.44847         2.64173
*
