# ORCA input file
# SCF done       -177.814756474289          0.000844252485
! CAM-B3LYP def2-SVP def2/J RIJCOSX Grid4 TightSCF
%maxcore 5000
%tddft
    Mode sTDDFT
    Ethresh 5.0
    maxcore 5000
end

%pal
  nprocs 6
  end
* xyz 0 1
   C        1.66569        -0.37637        -0.28556
   O        1.08326        -1.18760         0.38667
   C        2.64353         0.62536         0.19967
   C        3.17905         1.34410        -0.88295
   C        4.13320         2.32298        -0.65124
   C        4.53053         2.56909         0.65737
   C        3.98895         1.85154         1.72761
   C        3.03785         0.86584         1.49972
  Br        4.54695         2.21215         3.49507
  Br        5.83344         3.90007         0.97555
   C        2.56629         0.86835        -2.11904
   C        2.76056         1.40550        -3.36212
   C        3.63537         2.48202        -3.62978
   N        4.33500         3.34722        -3.90795
   C        2.10732         0.98876        -4.54332
   N        1.61068         0.71835        -5.54178
   C        1.66037        -0.21608        -1.77114
   C        1.04316        -1.04599        -2.65195
   C        0.06532        -2.02789        -2.34415
   S       -0.24331        -3.36414        -3.46086
   C       -1.48821        -3.84629        -2.32754
   N       -1.58252        -3.02375        -1.30803
   N       -0.74195        -2.04676        -1.32062
   C       -2.29124        -4.99862        -2.52393
   C       -3.25631        -5.35709        -1.63919
   C       -4.06849        -6.50417        -1.82355
   N       -5.07186        -6.87982        -0.96724
   C       -5.51352        -6.16830         0.20844
   C       -6.38310        -4.96612        -0.15018
   C       -5.71680        -8.06352        -1.39094
   O       -6.62796        -8.58309        -0.78950
   C       -5.02195        -8.41970        -2.61258
   C       -4.01971        -7.45213        -2.84808
   C       -3.33381        -7.82418        -4.06480
   O       -2.42605        -7.30078        -4.67978
   N       -3.96492        -9.01234        -4.48087
   C       -3.53246        -9.65000        -5.70149
   C       -2.45825       -10.70404        -5.44038
   C       -4.97378        -9.38289        -3.61962
   C       -5.85478       -10.49422        -3.68219
   C       -5.77915       -11.60350        -4.45780
   C       -6.77222       -12.61855        -4.41284
   S       -6.61997       -14.10413        -5.34686
   C       -8.18565       -14.53309        -4.66917
   N       -8.64715       -13.61229        -3.86650
   N       -7.88183       -12.57828        -3.72499
   C       -8.85025       -15.74366        -4.99794
   C      -10.13380       -15.98073        -4.63726
   C      -10.81761       -17.17754        -4.96726
   C      -12.15946       -17.38888        -4.89778
   C      -12.71079       -18.77137        -4.88821
   O      -12.13009       -19.78971        -5.17521
   C      -14.09877       -18.62073        -4.39663
   C      -14.40049       -17.25401        -4.24072
   C      -13.25553       -16.46401        -4.68977
   C      -13.29216       -15.15035        -5.07095
   C      -12.26497       -14.51628        -5.80557
   N      -11.49632       -13.98436        -6.47036
   C      -14.41890       -14.31821        -4.89361
   N      -15.30812       -13.60736        -4.75535
   C      -15.64159       -16.87244        -3.76031
   C      -16.56742       -17.86243        -3.45037
   C      -16.26607       -19.21584        -3.62227
   C      -15.01980       -19.60348        -4.09782
  Br      -17.55097       -20.53654        -3.20571
  Br      -18.25942       -17.34922        -2.78462
   H        4.57801         2.89263        -1.45093
   H        2.61349         0.30144         2.31557
   H        1.30352        -0.98855        -3.70096
   H       -2.10702        -5.58560        -3.41325
   H       -3.40845        -4.74217        -0.76433
   H       -4.64542        -5.85892         0.79636
   H       -6.09951        -6.88456         0.79113
   H       -5.83281        -4.25377        -0.76071
   H       -6.71069        -4.46787         0.75767
   H       -7.26049        -5.29346        -0.70252
   H       -3.10494        -8.85746        -6.32362
   H       -4.39887       -10.06884        -6.21705
   H       -1.57092       -10.22655        -5.03258
   H       -2.18990       -11.19655        -6.37097
   H       -2.80010       -11.45261        -4.72873
   H       -6.67851       -10.43330        -2.98160
   H       -4.96081       -11.79153        -5.13330
   H       -8.30639       -16.45441        -5.60428
   H      -10.64682       -15.22181        -4.06369
   H      -10.21862       -18.03884        -5.24394
   H      -15.90466       -15.83724        -3.61252
   H      -14.77673       -20.64615        -4.23184
*
