# ORCA input file
# SCF done       -185.343603886543          0.000951628336
! CAM-B3LYP def2-SVP def2/J RIJCOSX Grid4 TightSCF
%maxcore 5000
%tddft
    Mode sTDDFT
    Ethresh 5.0
    maxcore 5000
end

%pal
  nprocs 6
  end
* xyz 0 1
   C        5.04141         3.58272         0.51504
   C        4.74092         4.90520         0.60714
   S        5.97027         5.76371         1.46327
   C        6.91413         4.31041         1.69527
  Cl        8.39469         4.34429         2.51750
   C        6.28482         3.23827         1.13656
   C        6.54836         1.80188         0.98281
   O        7.53511         1.20052         1.34423
   C        5.32274         1.26608         0.31976
   C        4.47104         2.38521        -0.06345
   C        3.39206         2.34936        -0.90536
   C        2.65288         3.51496        -1.19577
   N        2.04313         4.45880        -1.42644
   C        2.96498         1.20772        -1.61515
   N        2.61377         0.32465        -2.25883
   C        4.88398        -0.02614         0.25795
   C        5.53928        -1.26384         0.49249
   C        6.88600        -1.46620         0.46349
   C        7.47620        -2.75236         0.57466
   C        6.74748        -3.89722         0.49655
   C        5.24742        -3.80495         0.32579
   C        4.64766        -2.46174         0.78634
   N        3.31473        -2.25034         0.26697
   C        2.98322        -2.81546        -0.80845
   C        3.90838        -3.68589        -1.56212
   N        4.97497        -4.12386        -1.05875
   F        3.61507        -3.96720        -2.82486
   F        1.76159        -2.63987        -1.28304
   C        7.28032        -5.22655         0.50935
   N        8.53645        -5.60832         0.09891
   C        9.49534        -4.83983        -0.66420
   C       10.71231        -4.45673         0.17451
   C        8.75561        -6.98713         0.29733
   O        9.79721        -7.55024         0.01866
   C        7.52337        -7.46504         0.87269
   C        6.63156        -6.36871         0.97503
   C        5.41796        -6.86617         1.58454
   O        4.37806        -6.31188         1.89310
   N        5.65190        -8.23546         1.79750
   C        4.60404        -9.06976         2.33523
   C        3.87597        -9.83856         1.23570
   C        6.90411        -8.60737         1.36995
   C        7.54578        -9.87624         1.40136
   C        7.11694       -11.08830         1.80626
   C        8.00273       -12.23378         1.71593
   N        7.51473       -13.41994         2.09134
   C        8.32666       -14.45656         1.99375
   C        9.62689       -14.34860         1.52187
   C       10.05204       -13.06601         1.14983
   N        9.23113       -12.02652         1.26324
   C       11.37729       -12.79844         0.62832
   C       11.71608       -11.56555         0.20326
   C       12.99573       -11.21221        -0.30642
   C       13.30123       -10.06511        -0.96277
   C       14.73328        -9.63972        -1.08403
   O       15.70517       -10.32662        -0.88457
   C       14.65735        -8.21589        -1.43070
   C       15.52415        -7.17533        -1.58512
   S       14.65848        -5.71358        -1.99314
   C       13.13649        -6.52972        -1.96214
   C       13.28939        -7.84253        -1.64891
   C       12.44561        -9.01334        -1.49150
   C       11.16574        -9.11282        -1.95967
   C       10.52608        -8.00269        -2.55130
   N       10.01338        -7.10879        -3.05583
   C       10.39514       -10.29173        -2.02908
   N        9.74121       -11.22322        -2.17583
  Cl       17.21091        -7.18593        -1.42586
   H        3.88425         5.43523         0.24077
   H        3.83189        -0.15055         0.02113
   H        7.54858        -0.62615         0.33298
   H        8.54399        -2.78562         0.71646
   H        4.77313        -4.60137         0.91735
   H        4.52927        -2.49350         1.87930
   H        8.99562        -3.96259        -1.07607
   H        9.81579        -5.47639        -1.49584
   H       10.42352        -3.89153         1.05834
   H       11.39498        -3.85337        -0.41789
   H       11.22953        -5.35620         0.49907
   H        3.90283        -8.38978         2.82847
   H        5.02573        -9.74289         3.08466
   H        3.39921        -9.14043         0.55200
   H        3.11010       -10.47190         1.67450
   H        4.56543       -10.45959         0.66882
   H        8.55866        -9.83403         1.01866
   H        6.13498       -11.30419         2.19212
   H        7.91380       -15.40823         2.30418
   H       10.27538       -15.20547         1.44149
   H       12.06320       -13.63115         0.55820
   H       10.96936       -10.78777         0.28342
   H       13.82810       -11.87448        -0.09235
   H       12.24068        -5.98049        -2.16861
*
