# ORCA input file
# SCF done       -180.037621829505          0.000382981299
! CAM-B3LYP def2-SVP def2/J RIJCOSX Grid4 TightSCF
%maxcore 5000
%tddft
    Mode sTDDFT
    Ethresh 5.0
    maxcore 5000
end

%pal
  nprocs 6
  end
* xyz 0 1
   C        5.16326        -2.34196        -6.74711
   C        5.28176        -2.22294        -8.09828
   S        6.45947        -3.31789        -8.72070
   C        6.80248        -3.95590        -7.13062
  Cl        7.95250        -5.17678        -6.89901
   C        6.03376        -3.33320        -6.19207
   C        5.85472        -3.41131        -4.73908
   O        6.41603        -4.15801        -3.97452
   C        4.82270        -2.36210        -4.42839
   C        4.38785        -1.74308        -5.68049
   C        3.42628        -0.78926        -5.86899
   C        3.13282        -0.29711        -7.16066
   N        2.88254         0.11516        -8.20098
   C        2.61764        -0.19304        -4.87848
   N        1.91499         0.33547        -4.14120
   C        4.37515        -1.99179        -3.20114
   C        4.74265        -2.50369        -1.92906
   O        5.59735        -3.51749        -1.69888
   C        5.61965        -3.61181        -0.35663
   N        4.82452        -2.71020         0.18825
   N        4.27894        -2.02303        -0.78996
   C        6.42442        -4.57464         0.31101
   C        7.18862        -5.44625        -0.38898
   C        8.03859        -6.43381         0.18206
   C        8.30278        -6.70041         1.50502
   C        9.24002        -7.77639         1.58873
   C        9.53521        -8.17102         0.19568
   C        8.81978        -7.36353        -0.62663
   C       10.40695        -9.18211        -0.22406
   N       11.11791       -10.00224        -0.60022
   C        9.78295        -8.32998         2.72058
   C       10.70430        -9.41947         2.79739
   C       10.97449        -9.68670         4.11545
   C       10.25561        -8.71840         4.93432
   C        9.54225        -7.90662         4.11389
   C        8.74505        -6.83546         4.53516
   N        8.09681        -5.96001         4.89799
   C       11.90617       -10.65196         4.60053
   S       13.36648       -10.83114         3.70597
   C       14.14051       -11.72780         4.96288
   C       13.23888       -12.00139         5.99891
   C       11.94354       -11.40970         5.78315
   C       10.90523       -11.71944         6.69485
   C        9.44710       -11.41802         6.45001
   F        9.11919       -11.32084         5.15503
   F        8.67023       -12.39735         6.94340
   F        9.03104       -10.29056         7.04968
   C       11.18318       -12.43415         7.83917
   C       12.45126       -12.96703         8.07322
   C       13.45658       -12.81790         7.13867
   C       14.63139       -13.57783         7.33165
   N       15.53259       -14.25628         7.53962
   C       15.52390       -12.01320         4.80731
   C       16.52700       -12.00373         5.72007
   C       17.83098       -12.64732         5.34066
   O       18.15900       -12.98106         4.22964
   C       18.54022       -12.79763         6.61159
   C       19.69337       -13.37667         7.05154
   S       19.86382       -13.16067         8.77740
   C       18.38346       -12.28375         8.88229
   C       17.79102       -12.17301         7.66315
   C       16.59658       -11.57214         7.10508
   C       15.81444       -10.65103         7.75130
   C       16.02805       -10.33069         9.10896
   N       16.16671       -10.07476        10.21831
   C       14.79220        -9.89094         7.15725
   N       13.96827        -9.22278         6.71667
  Cl       20.85704       -14.20511         6.14564
   H        4.76419        -1.57033        -8.77284
   H        3.65010        -1.19375        -3.11312
   H        6.38236        -4.55636         1.38805
   H        7.16415        -5.39643        -1.47139
   H        7.88886        -6.19367         2.35354
   H        8.81340        -7.38605        -1.70093
   H       11.08259        -9.96644         1.95625
   H       10.34113        -8.63128         6.00041
   H       10.39256       -12.64390         8.54267
   H       12.62735       -13.55983         8.95736
   H       15.84023       -12.25793         3.79626
   H       18.04863       -11.92654         9.83589
*
