# ORCA input file
# SCF done       -173.711144945166          0.000507738974
! CAM-B3LYP def2-SVP def2/J RIJCOSX Grid4 TightSCF
%maxcore 5000
%tddft
    Mode sTDDFT
    Ethresh 5.0
    maxcore 5000
end

%pal
  nprocs 6
  end
* xyz 0 1
   C       -0.02869         1.57782         4.68178
   C        0.77882         0.47055         4.68059
   C        1.05412        -0.30783         5.82538
   N        1.31950        -0.98597         6.71284
   C        1.46049        -0.05743         3.56401
   N        2.04988        -0.55086         2.71017
   C       -0.70766         2.12238         5.85313
   C       -1.41286         3.29788         5.46581
   C       -2.14553         4.03013         6.35490
   C       -2.21183         3.60953         7.70190
   C       -1.51302         2.43292         8.09858
   C       -0.75990         1.69745         7.15444
   C       -1.58873         2.01967         9.44415
   C       -2.31889         2.73318        10.35549
   C       -3.00587         3.89185         9.96388
   C       -2.95337         4.32098         8.66525
   C       -1.20939         3.53210         4.02991
   O       -1.66123         4.45299         3.37347
   C       -0.35869         2.42928         3.54992
   C        0.02245         2.22254         2.25395
   C       -0.25969         2.96561         1.08962
   S       -1.17726         4.44784         0.96924
   C       -0.95878         4.49689        -0.74300
   C       -0.20503         3.40569        -1.19610
   C        0.18731         2.55734        -0.16250
   C        0.11808         3.19535        -2.54924
   N        0.38266         3.01591        -3.65037
   C       -1.50812         5.51449        -1.57236
   C       -2.18535         6.58568        -1.11746
   C       -2.75778         7.57523        -2.00621
   N       -2.66214         7.37058        -3.32305
   C       -3.21098         8.27717        -4.10850
   C       -3.87128         9.39105        -3.61659
   C       -3.92142         9.52879        -2.22227
   N       -3.35309         8.61735        -1.43553
   C       -4.56108        10.64421        -1.54760
   C       -5.56235        11.34591        -2.08899
   N       -6.19215        12.42710        -1.49927
   C       -7.43825        12.88940        -1.87488
   C       -8.27197        12.23759        -2.90931
   C       -7.73001        13.98981        -1.12133
   C       -6.61817        14.26345        -0.24837
   C       -5.61687        13.25017        -0.46959
   O       -4.53434        13.05792         0.02660
   C       -6.89161        15.38676         0.47737
   C       -6.04670        16.09812         1.44926
   N       -8.16998        15.80781         0.13998
   C       -8.73574        14.99426        -0.90030
   O       -9.80032        15.21439        -1.42469
   C       -8.76814        16.95847         0.62172
   N      -10.02612        16.96179         1.15957
   C      -10.87198        15.82420         1.44625
   C      -12.09824        15.78566         0.54152
   C      -10.40913        18.26660         1.55375
   O      -11.46536        18.50863         2.10008
   C       -9.28282        19.09326         1.19808
   C       -8.27051        18.24162         0.64776
   C       -7.14677        19.06840         0.28325
   O       -6.05072        18.80075        -0.17287
   N       -7.56096        20.37209         0.60049
   C       -6.67511        21.49540         0.41409
   C       -6.02161        21.92912         1.72398
   C       -8.82455        20.39668         1.14828
   C       -9.48787        21.60801         1.54380
   C      -10.69062        21.62034         2.12051
   H       -2.66915         4.91827         6.03365
   H       -0.24443         0.81143         7.48871
   H       -1.05778         1.12714         9.74102
   H       -2.37093         2.40821        11.38377
   H       -3.57703         4.44267        10.69612
   H       -3.48031         5.21236         8.35770
   H        0.62748         1.34635         2.05319
   H        0.77475         1.66761        -0.31044
   H       -1.36732         5.40398        -2.64051
   H       -2.34049         6.75688        -0.06174
   H       -3.11442         8.09842        -5.17246
   H       -4.29574        10.12765        -4.27797
   H       -4.20017        10.85608        -0.55414
   H       -5.96559        11.08204        -3.05832
   H       -8.42662        11.18402        -2.67667
   H       -7.79731        12.30457        -3.88897
   H       -9.23317        12.74235        -2.95464
   H       -5.63539        16.99062         0.96857
   H       -5.22405        15.45647         1.75184
   H       -6.61965        16.41961         2.31777
   H      -11.19340        15.91975         2.48922
   H      -10.28039        14.91242         1.33716
   H      -12.67728        16.69563         0.67133
   H      -12.71746        14.93278         0.80519
   H      -11.79336        15.69642        -0.49716
   H       -7.22340        22.32476        -0.04130
   H       -5.90488        21.15784        -0.28516
   H       -6.77097        22.22411         2.45520
   H       -5.35780        22.76991         1.54309
   H       -5.43903        21.10924         2.13685
   H       -8.96596        22.53494         1.35046
   H      -11.22819        20.70953         2.32406
   H      -11.16351        22.54539         2.40178
*
