# ORCA input file
# SCF done       -167.492644671739          0.000802386503
! CAM-B3LYP def2-SVP def2/J RIJCOSX Grid4 TightSCF
%maxcore 5000
%tddft
    Mode sTDDFT
    Ethresh 5.0
    maxcore 5000
end

%pal
  nprocs 6
  end
* xyz 0 1
   C        1.67318         0.88694        -0.77220
   C        1.92964         2.22146        -0.90751
   C        2.53587         2.78722        -2.04895
   N        3.02108         3.28697        -2.96055
   C        1.72818         3.16089         0.12665
   N        1.66239         3.93721         0.96903
   C        2.12430        -0.16842        -1.67127
   C        2.11738        -1.40708        -0.96214
   C        2.53798        -2.56942        -1.54379
   C        2.97976        -2.54798        -2.88498
   C        2.97002        -1.31747        -3.60515
   C        2.53694        -0.12782        -2.97620
   C        3.40419        -1.31339        -4.94647
   C        3.83095        -2.46603        -5.54773
   C        3.84277        -3.67598        -4.83717
   C        3.42658        -3.71609        -3.53431
   C        1.59153        -1.19405         0.39463
   O        1.48577        -1.98842         1.29811
   C        1.13493         0.23286         0.40862
   C        0.23719         0.63114         1.33650
   C       -0.57614         1.79849         1.30458
   S       -1.43731         2.35993         2.72825
   C       -2.07423         3.61995         1.68449
   N       -1.64763         3.51454         0.45820
   N       -0.82934         2.52589         0.25342
   C       -2.96134         4.62263         2.17735
   C       -3.37263         5.66125         1.42744
   C       -4.25968         6.71029         1.87724
   C       -4.34868         7.89555         1.14731
   C       -5.16165         8.93396         1.57122
   N       -5.24522        10.10382         0.73159
   O       -4.36026        10.27293        -0.07823
   O       -6.20015        10.83728         0.87629
   C       -5.92853         8.83940         2.74393
   C       -5.86141         7.62792         3.44264
   C       -5.05492         6.59439         3.02647
   C       -6.70313         9.93703         3.28698
   C       -7.89726         9.77151         3.88043
   C       -8.58309        10.83830         4.53651
   S      -10.22066        10.65988         5.14798
   C      -10.02115        12.29839         5.77249
   N       -8.85322        12.79582         5.48308
   N       -8.07354        12.00522         4.81009
   C      -11.03352        12.94026         6.53581
   C      -10.83226        14.11161         7.18664
   C      -11.85258        14.69185         7.98382
   C      -11.70160        15.79766         8.76468
   C      -12.71014        16.40478         9.61921
   C      -14.02860        16.04429         9.71924
   C      -14.96048        16.67818        10.56910
   N      -15.76984        17.14557        11.23562
   C      -14.65893        15.00799         8.99863
   N      -15.25040        14.18633         8.45635
   C      -12.07366        17.49042        10.35580
   C      -10.71373        17.58752         9.94441
   C      -10.42876        16.55787         8.93121
   O       -9.37382        16.36967         8.36739
   C       -9.86322        18.51633        10.47140
   C      -10.34131        19.40713        11.45771
   C      -11.70042        19.31672        11.87678
   C      -12.55823        18.34685        11.31021
   C      -12.16665        20.20796        12.86502
   C      -11.33196        21.14254        13.41442
   C       -9.99392        21.23016        13.00124
   C       -9.50929        20.38150        12.04322
   H        2.53243        -3.49456        -0.98677
   H        2.53054         0.78878        -3.54515
   H        3.39657        -0.37932        -5.48850
   H        4.16276        -2.45210        -6.57499
   H        4.18279        -4.57575        -5.32753
   H        3.43302        -4.64432        -2.98199
   H        0.06174        -0.05080         2.16107
   H       -3.26277         4.50953         3.20837
   H       -2.99131         5.74351         0.41927
   H       -3.77980         8.02440         0.23796
   H       -6.43704         7.52502         4.34962
   H       -5.04340         5.67806         3.59507
   H       -6.28885        10.93410         3.23599
   H       -8.40008         8.81441         3.87377
   H      -11.98393        12.42698         6.60726
   H       -9.87181        14.60069         7.12020
   H      -12.80920        14.18398         7.97540
   H       -8.83645        18.56698        10.14070
   H      -13.58005        18.30402        11.65193
   H      -13.19746        20.13680        13.17977
   H      -11.69809        21.81990        14.17128
   H       -9.34928        21.97333        13.44614
   H       -8.48024        20.44391        11.72092
*
