# ORCA input file
# SCF done       -179.973391100398          0.000684287851
! CAM-B3LYP def2-SVP def2/J RIJCOSX Grid4 TightSCF
%maxcore 5000
%tddft
    Mode sTDDFT
    Ethresh 5.0
    maxcore 5000
end

%pal
  nprocs 6
  end
* xyz 0 1
   C       -0.60673        -1.22500         0.10787
   N       -0.23906        -0.43474         1.14753
   C        0.67873        -0.79465         2.19956
   C        2.12717        -0.74877         1.72080
   C       -0.82763         0.85265         1.05250
   O       -0.63127         1.74046         1.85314
   C       -1.62257         0.77359        -0.15191
   C       -1.45170        -0.52712        -0.71276
   C       -2.25055        -0.58636        -1.92021
   O       -2.42813        -1.45967        -2.73709
   N       -2.85059         0.69383        -2.00812
   C       -3.79139         0.96151        -3.06999
   C       -5.23389         0.93445        -2.57068
   C       -2.49205         1.49865        -0.95186
   C       -2.88471         2.83093        -0.63055
   C       -3.62311         3.70177        -1.35055
   C       -3.93024         5.02897        -0.88999
   C       -3.99516         6.13465        -1.76408
   C       -3.80154         6.01861        -3.22130
   O       -3.57460         5.03652        -3.86593
   S       -3.96002         7.63988        -3.96837
   C       -4.21420         8.44951        -2.38808
   O       -4.32761         9.63760        -2.29408
   C       -4.23186         7.43508        -1.31908
   C       -4.43245         7.75636         0.04267
   C       -4.44700         6.63804         0.89777
   C       -4.22190         5.34146         0.45081
   C       -4.54274         4.42591         1.57780
   O       -4.60313         3.23740         1.61716
   O       -4.87374         5.21305         2.65196
   C       -4.83895         6.54657         2.32877
   O       -5.11150         7.39689         3.11637
   C       -4.68927         9.10442         0.45758
   C       -4.25346         9.67364         1.59956
   C       -4.46750        11.03491         1.96724
   S       -3.55091        11.66212         3.30954
   C       -4.21270        13.24457         3.08429
   C       -5.11292        13.27407         2.03306
   C       -5.26494        12.02142         1.40620
   S       -6.47315        11.73607         0.15176
   C       -5.79046        12.71114        -1.24201
   C       -6.15528        14.18542        -1.20024
   C       -5.39526        14.97392        -0.14572
   S       -5.98917        14.72862         1.57355
   C       -3.77980        14.30284         3.92194
   S       -4.46641        15.91180         3.91831
   C       -3.27374        16.27239         5.16121
   N       -2.51762        15.24760         5.44121
   N       -2.79130        14.17364         4.76651
   C       -3.12852        17.57662         5.70866
   C       -2.51114        17.91653         6.86351
   C       -2.10250        19.34564         7.07700
   O       -2.48226        20.30010         6.44523
   C       -1.11876        19.27712         8.16113
   C       -0.28024        20.13769         8.80652
   S        0.63203        19.29610        10.03566
   C       -0.13629        17.79378         9.67097
   C       -1.03394        17.93408         8.66004
   C       -1.99386        17.10504         7.95567
   C       -2.45634        15.89757         8.39477
   C       -3.58647        15.23769         7.86961
   N       -4.54964        14.71361         7.53199
   C       -1.88741        15.26025         9.51773
   N       -1.42533        14.73750        10.42790
  Cl       -0.07748        21.79703         8.53656
   H       -0.24874        -2.23514         0.02710
   H        0.42943        -1.79468         2.56565
   H        0.52849        -0.06964         3.00373
   H        2.28339        -1.44541         0.90009
   H        2.79337        -1.01490         2.53633
   H        2.37673         0.25286         1.37992
   H       -3.64462         0.15805        -3.79870
   H       -3.54866         1.91043        -3.55422
   H       -5.47782        -0.05913        -2.20322
   H       -5.90935         1.17797        -3.38588
   H       -5.38559         1.64526        -1.76169
   H       -2.47546         3.14857         0.31981
   H       -3.95105         3.47073        -2.35031
   H       -5.22417         9.71313        -0.25758
   H       -3.62421         9.11803         2.28026
   H       -4.71310        12.55185        -1.25686
   H       -6.22591        12.23823        -2.12128
   H       -7.22838        14.29073        -1.02864
   H       -5.92513        14.61977        -2.17738
   H       -4.32969        14.74597        -0.15947
   H       -5.53378        16.04296        -0.30456
   H       -3.49048        18.39592         5.09767
   H        0.13511        16.91492        10.22123
*
