# ORCA input file
# SCF done       -142.738207357005          0.000741611434
! CAM-B3LYP def2-SVP def2/J RIJCOSX Grid4 TightSCF
%maxcore 5000
%tddft
    Mode sTDDFT
    Ethresh 5.0
    maxcore 5000
end

%pal
  nprocs 6
  end
* xyz 0 1
   C        0.48948         0.97607        -3.99703
   N        1.50442         0.34464        -4.61679
   N        1.51036        -0.92084        -4.50803
   C        0.47480        -1.59611        -4.01042
   N       -0.71707        -0.93632        -3.98681
   N       -0.63389         0.32708        -3.84164
   C        0.58733        -2.96765        -3.67256
   C       -0.33424        -3.71893        -2.97363
   C        0.16910        -5.04426        -2.84716
   C        1.49093        -5.04996        -3.48953
   C        1.73440        -3.80050        -3.97245
   C        2.40865        -6.10846        -3.51585
   N        3.21068        -6.93027        -3.52471
   C       -0.45449        -6.12725        -2.25622
   C       -0.03384        -7.47818        -2.28683
   C       -0.89754        -8.24755        -1.52231
   C       -1.92147        -7.35966        -0.99175
   C       -1.68163        -6.09914        -1.44385
   C       -2.46270        -4.98053        -1.13421
   N       -3.12272        -4.08514        -0.84733
   C       -0.73402        -9.64494        -1.35195
   N       -1.25721       -10.44015        -0.36100
   C       -2.11760       -10.05694         0.73355
   C       -3.59221       -10.20276         0.36471
   C       -0.82186       -11.77210        -0.46975
   O       -1.13429       -12.64443         0.31629
   C        0.01961       -11.78467        -1.64560
   C        0.05818       -10.46978        -2.16030
   C        0.84868       -10.48831        -3.37375
   O        1.12681        -9.63842        -4.18946
   N        1.26692       -11.83342        -3.48958
   C        2.16222       -12.23313        -4.54766
   C        3.61081       -12.28745        -4.06826
   C        0.78930       -12.61190        -2.46855
   C        1.06414       -13.99954        -2.33712
   C        0.58275       -14.73722        -1.30920
   C        0.81548       -16.14026        -1.08611
   C        0.22763       -16.74291         0.03076
   C        0.42458       -18.08389         0.30360
   N       -0.15079       -18.60666         1.51935
   O       -1.10509       -18.02209         1.98012
   O        0.36761       -19.58596         2.01474
   C        1.20585       -18.90189        -0.53194
   C        1.79349       -18.28579        -1.64364
   C        1.61071       -16.94940        -1.91339
   C        1.35882       -20.32531        -0.31472
   C        2.48296       -21.00778        -0.58727
   C        2.57837       -22.42094        -0.36215
   N        3.74685       -23.03844        -0.48827
   N        3.91209       -24.23834        -0.06411
   C        2.89869       -24.73731         0.65593
   N        1.68335       -24.30717         0.41917
   N        1.48195       -23.19691        -0.19462
   H        0.55282         2.02576        -3.77845
   H       -1.28027        -3.37000        -2.60884
   H        2.61574        -3.45944        -4.48143
   H        0.81605        -7.84178        -2.82834
   H       -2.76009        -7.64241        -0.38583
   H       -1.87501        -9.03823         1.04214
   H       -1.88899       -10.73826         1.55874
   H       -3.83631        -9.62671        -0.52553
   H       -4.21489        -9.86232         1.18748
   H       -3.81799       -11.24783         0.16790
   H        2.06577       -11.47196        -5.32693
   H        1.84388       -13.19679        -4.95494
   H        3.92070       -11.30438        -3.72307
   H        4.25870       -12.58690        -4.88726
   H        3.72689       -12.99525        -3.24986
   H        1.68349       -14.44828        -3.09969
   H       -0.03788       -14.24784        -0.57005
   H       -0.37959       -16.15741         0.70624
   H        2.38141       -18.89149        -2.31578
   H        2.08767       -16.52536        -2.78282
   H        0.51900       -20.86975         0.09584
   H        3.38991       -20.52757        -0.92389
   H        3.05341       -25.59427         1.28608
*
