# ORCA input file
# SCF done       -214.755535277768          0.000878269222
! CAM-B3LYP def2-SVP def2/J RIJCOSX Grid4 TightSCF
%maxcore 5000
%tddft
    Mode sTDDFT
    Ethresh 5.0
    maxcore 5000
end

%pal
  nprocs 6
  end
* xyz 0 1
   C       -2.44819        -1.50923        -2.82962
   C       -2.82727        -2.79001        -2.52093
   C       -2.17235        -3.94368        -3.00083
   N       -1.68545        -4.91653        -3.36646
   C       -3.89026        -3.13412        -1.65910
   N       -4.72453        -3.48744        -0.95365
   C       -1.28905        -1.13469        -3.62841
   C       -1.14467         0.27334        -3.58283
   C       -0.13660         0.93793        -4.23800
   C        0.77315         0.17501        -4.97707
   C        0.61860        -1.23190        -5.02185
   C       -0.39994        -1.90328        -4.35694
   S        1.84504        -1.97808        -5.99987
   C        2.54043        -0.41316        -6.32946
   C        1.88918         0.61690        -5.73838
  Br        4.05732        -0.28740        -7.42406
   C       -2.22183         0.85800        -2.76175
   O       -2.39354         2.03772        -2.54512
   C       -3.07250        -0.28790        -2.35225
   C       -4.33126        -0.21555        -1.82422
   C       -4.99309         0.89942        -1.26996
   C       -4.50937         2.08264        -0.72685
   C       -5.53159         2.91265        -0.28675
   C       -6.81719         2.36603        -0.49701
   S       -6.75761         0.81387        -1.18679
   C       -7.77943         3.31807        -0.09199
   C       -7.11534         4.46244         0.38782
   C       -5.67927         4.23136         0.31021
   C       -4.68397         5.06113         0.73033
   C       -3.31755         4.71328         0.64104
   N       -2.20467         4.44291         0.59886
   C       -4.94065         6.31651         1.32495
   N       -5.12695         7.33472         1.81668
   C       -7.98945         5.48019         0.76027
   C       -9.31687         5.12640         0.57188
   S       -9.47624         3.49504        -0.07028
   C      -10.44099         5.97503         0.74918
   C      -11.79400         5.77059         0.73835
   C      -12.47608         7.05130         0.79259
   N      -11.53171         8.03394         0.88774
   C      -10.26566         7.45682         0.88656
   O       -9.24474         8.09392         0.97503
   C      -11.70517         9.45130         1.06431
   C      -13.82823         6.84790         0.73002
   C      -14.00367         5.35888         0.70779
   O      -15.02414         4.71550         0.69869
   N      -12.73681         4.78380         0.69427
   C      -12.56315         3.35656         0.74924
   C      -14.95040         7.70853         0.60656
   C      -16.28142         7.32586         0.67640
   C      -17.14804         8.38241         0.41077
   C      -16.47625         9.58739         0.13126
   S      -14.78166         9.41541         0.20699
   C      -17.43120        10.58462        -0.17660
   C      -18.71496        10.00668        -0.09725
   C      -18.57947         8.60942         0.28083
   C      -19.59156         7.71085         0.44145
   C      -19.37805         6.37046         0.82979
   N      -19.22785         5.28444         1.16314
   C      -20.93711         8.08356         0.23303
   N      -22.02508         8.40266         0.06132
   C      -19.72594        10.88991        -0.45039
   C      -19.23395        12.13916        -0.80153
   S      -17.48271        12.21887        -0.64672
   C      -19.94354        13.28785        -1.21480
   C      -21.19808        13.37153        -1.73729
   C      -22.11451        12.39554        -2.29036
   C      -21.78804        11.23124        -2.93673
   C      -22.72917        10.39703        -3.57682
   N      -23.45065         9.68849        -4.11868
   C      -20.46959        10.77783        -3.13407
   N      -19.41315        10.38286        -3.34963
   C      -23.44000        13.00619        -2.29977
   C      -23.30988        14.38597        -1.99883
   C      -21.89509        14.68970        -1.71521
   O      -21.39552        15.76304        -1.47017
   C      -24.38545        15.24076        -1.98160
   C      -25.64756        14.70687        -2.26241
   C      -25.76876        13.32346        -2.54082
   C      -24.68061        12.45967        -2.56581
   S      -27.41811        12.87485        -2.84598
   C      -27.91649        14.52867        -2.60716
   C      -26.90146        15.37481        -2.30965
  Br      -29.72820        14.98178        -2.77132
   H       -0.05322         2.01185        -4.18069
   H       -0.47912        -2.97529        -4.42650
   H        2.18158         1.64652        -5.83489
   H       -4.93867        -1.11236        -1.86950
   H       -3.46226         2.31084        -0.66465
   H       -7.70444         6.44641         1.13509
   H      -12.38156         9.65596         1.89387
   H      -12.08721         9.91816         0.15551
   H      -10.72035         9.86291         1.28675
   H      -13.55158         2.92478         0.90820
   H      -11.90734         3.08091         1.57482
   H      -12.15585         2.97207        -0.18685
   H      -16.57446         6.31541         0.89689
   H      -20.77614        10.66289        -0.42410
   H      -19.45473        14.24309        -1.04768
   H      -24.25791        16.28865        -1.75999
   H      -24.82015        11.41165        -2.77323
   H      -27.02995        16.42671        -2.13106
*
