# ORCA input file
# SCF done       -190.230643455598          0.000513718988
! CAM-B3LYP def2-SVP def2/J RIJCOSX Grid4 TightSCF
%maxcore 5000
%tddft
    Mode sTDDFT
    Ethresh 5.0
    maxcore 5000
end

%pal
  nprocs 6
  end
* xyz 0 1
   C       11.37249         3.09468         3.28962
   C       11.11097         3.27714         1.96598
   C        9.95062         4.05205         1.77544
   C        9.36115         4.43751         2.98538
   S       10.22180         3.85556         4.33899
   C        8.19832         5.20910         2.69953
   C        8.06236         5.30724         1.30883
   C        9.16038         4.58149         0.68026
   C        9.38464         4.43235        -0.65713
   C        8.53290         4.99956        -1.62799
   N        7.84270         5.45965        -2.41987
   C       10.48087         3.70016        -1.15924
   N       11.36914         3.10450        -1.57275
   C        6.94050         6.04176         0.92182
   C        6.22296         6.49911         2.01090
   S        6.94962         6.01825         3.53706
   C        5.01980         7.25085         1.99855
   C        4.27090         7.66956         3.08166
   C        3.12133         8.35646         2.68746
   C        3.00143         8.46408         1.29171
   S        4.30029         7.72448         0.46509
   C        1.79314         9.13871         0.99114
   C        1.14268         9.45670         2.19775
   C        1.96404         8.98476         3.30386
   C        1.70204         9.09957         4.63721
   C        0.53928         9.72945         5.12928
   N       -0.40088        10.23876         5.54299
   C        2.58106         8.59379         5.61820
   N        3.29291         8.18232         6.41749
   C       -0.08404        10.08665         2.00372
   C       -0.36808        10.24918         0.65670
   S        0.90255         9.62872        -0.37999
   C       -1.55445        10.78501         0.10875
   S       -1.77581        10.92461        -1.65770
   C       -3.35628        11.50174        -1.33611
   C       -3.58817        11.55563         0.04522
   N       -2.58435        11.16160         0.81778
   C       -4.98110        12.01839         0.33195
   C       -5.52323        12.18059        -1.05819
   C       -4.53441        11.88847        -2.00585
   S       -5.10250        12.03985        -3.61409
   C       -6.70093        12.46248        -3.02283
   C       -6.74314        12.50111        -1.63507
   C       -7.73626        12.64090        -3.97294
   C       -9.05469        12.75985        -3.67486
   C      -10.08889        12.83598        -4.64159
   C      -10.00202        12.93480        -6.02184
   C      -11.25352        12.89958        -6.63169
   C      -12.31154        12.77122        -5.71478
   S      -11.75969        12.71849        -4.10040
   C      -13.52772        12.68996        -6.43705
   C      -13.24146        12.77418        -7.81049
   C      -11.80633        12.92232        -7.97894
   C      -11.11989        13.05080        -9.15076
   C      -11.76949        13.05994       -10.40285
   N      -12.29593        13.06773       -11.42157
   C       -9.71629        13.18458        -9.18733
   N       -8.57502        13.29207        -9.21730
   C      -14.37954        12.66173        -8.61086
   C      -15.52520        12.48684        -7.85950
   S      -15.19471        12.47639        -6.13097
   C      -16.85028        12.29618        -8.32882
   C      -17.98896        12.07749        -7.57691
   C      -19.11661        11.89867        -8.38010
   C      -18.83221        11.98445        -9.74872
   S      -17.17972        12.28640       -10.05522
   C      -20.04056        11.77855       -10.47432
   C      -21.07945        11.56322        -9.56094
   C      -20.54112        11.63097        -8.21582
   C      -21.21496        11.47382        -7.03994
   C      -22.60052        11.21317        -6.99577
   N      -23.72665        11.00114        -6.95333
   C      -20.56935        11.55918        -5.78881
   N      -20.04758        11.63070        -4.77011
   C      -22.31684        11.34377       -10.19679
   C      -22.19352        11.39619       -11.55156
   S      -20.57727        11.71261       -12.09265
   H       12.18384         2.55061         3.72996
   H       11.71898         2.87587         1.17598
   H        6.64612         6.23787        -0.09360
   H        4.55611         7.46933         4.09890
   H       -0.76117        10.41209         2.77124
   H       -4.98720        12.95669         0.88984
   H       -5.53835        11.28323         0.91475
   H       -7.63047        12.75199        -1.08366
   H       -7.42767        12.62238        -5.00868
   H       -9.37297        12.74483        -2.64213
   H       -9.07024        13.02693        -6.54795
   H      -14.38732        12.69373        -9.68565
   H      -17.98053        12.04820        -6.50207
   H      -23.24490        11.15720        -9.68818
   H      -22.96210        11.26675       -12.28687
*
