# ORCA input file
# SCF done       -160.641284158596          0.000307003810
! CAM-B3LYP def2-SVP def2/J RIJCOSX Grid4 TightSCF
%maxcore 5000
%tddft
    Mode sTDDFT
    Ethresh 5.0
    maxcore 5000
end

%pal
  nprocs 6
  end
* xyz 0 1
   C       -2.72146        -2.92554        -1.95474
   C       -2.11072        -2.68962        -0.76109
   C       -1.94886        -1.30963        -0.53190
   C       -2.45293        -0.53106        -1.58078
   S       -3.11703        -1.48340        -2.83190
   C       -2.24528         0.84283        -1.26861
   C       -1.60967         0.92227        -0.02212
   C       -1.40454        -0.42872         0.48468
   C       -0.82459        -0.78232         1.66827
   C       -0.33345         0.17031         2.58554
   N        0.06987         0.93185         3.34241
   C       -0.67819        -2.12980         2.05861
   N       -0.55633        -3.22358         2.38137
   C       -1.35230         2.23430         0.37600
   C       -1.78832         3.15466        -0.55723
   S       -2.53149         2.38030        -1.95124
   C       -1.68035         4.57710        -0.48454
   C       -2.17566         5.42906        -1.47128
   N       -2.10060         6.74723        -1.46114
   C       -1.50936         7.39933        -0.46829
   C       -0.95510         6.66473         0.61757
   C       -1.05156         5.23066         0.60861
   N       -0.50239         4.69365         1.69674
   S        0.07102         5.86605         2.63553
   N       -0.33965         7.11319         1.70918
   C       -1.49389         8.82752        -0.55671
   C       -0.87583         9.63390         0.36784
   C       -0.86741        11.02265         0.32635
   C       -1.47830        11.73241        -0.80413
   C       -2.13239        11.12269        -1.82163
   S       -2.35106         9.42817        -1.96019
   C       -1.21066        13.10898        -0.57488
   C       -0.48680        13.25539         0.61076
   C       -0.19236        14.60941         0.88978
   C       -0.68510        15.43493        -0.06892
   S       -1.52605        14.61295        -1.34285
   C       -0.27676        11.96225         1.20345
   C        0.41348        11.78290         2.42718
   C        0.45285        10.66249         3.19570
   C        1.20194        10.49954         4.39889
   C        2.02825        11.45632         4.99823
   N        2.73851        11.29670         6.10153
   C        2.71908        10.15033         6.76907
   C        1.91669         9.07979         6.29115
   C        1.15529         9.25597         5.08920
   N        0.47785         8.15427         4.77061
   S        0.76693         7.02175         5.87859
   N        1.77010         7.86702         6.81483
   C        3.51565        10.01594         7.94360
   C        4.35991        10.96936         8.48736
   C        4.99589        10.49828         9.63318
   C        4.62576         9.18139         9.95644
   S        3.50255         8.52183         8.85408
   C        5.32752         8.79778        11.13356
   C        6.13466         9.86480        11.54685
   C        5.95842        10.96895        10.62182
   C        6.56905        12.18853        10.66371
   C        7.49313        12.53054        11.67288
   N        8.24614        12.81507        12.48993
   C        6.32524        13.19303         9.70389
   N        6.14087        14.02173         8.93300
   C        6.86774         9.56529        12.71121
   C        6.60711         8.30268        13.14942
   S        5.46840         7.44406        12.16394
   H       -2.97183        -3.87257        -2.38902
   H       -1.79587        -3.46575        -0.08779
   H       -0.87325         2.53296         1.29018
   H       -2.67424         5.01121        -2.33686
   H       -0.35650         9.11814         1.15973
   H       -2.57187        11.68525        -2.63071
   H        0.35249        14.95936         1.74775
   H       -0.61110        16.50375        -0.11765
   H        0.94017        12.66360         2.77266
   H       -0.12774         9.79326         2.92902
   H        2.13190        12.43644         4.55428
   H        4.47863        11.93991         8.04256
   H        7.54818        10.23819        13.20008
   H        7.01791         7.80707        14.00613
*
