# ORCA input file
# SCF done       -205.257913305449          0.000584316011
! CAM-B3LYP def2-SVP def2/J RIJCOSX Grid4 TightSCF
%maxcore 5000
%tddft
    Mode sTDDFT
    Ethresh 5.0
    maxcore 5000
end

%pal
  nprocs 6
  end
* xyz 0 1
   C        0.42584         1.07152         1.54105
   C       -0.70896         1.54578         2.14705
   C       -1.07731         1.23479         3.47279
   N       -1.42915         1.00697         4.54092
   C       -1.68542         2.32111         1.49331
   N       -2.51682         2.93648         0.99414
   C        1.33716         0.09543         2.12808
   C        2.06512        -0.53617         1.07745
   C        2.97673        -1.52042         1.33038
   C        3.21521        -1.91147         2.66763
   C        2.50695        -1.26638         3.72277
   C        1.56099        -0.25687         3.43115
   C        2.76532        -1.65570         5.05255
   C        3.67620        -2.63850         5.32961
   C        4.37102        -3.27528         4.29053
   C        4.14531        -2.91987         2.98827
   C        1.68181         0.06858        -0.20998
   O        2.04154        -0.24102        -1.32262
   C        0.79077         1.21235         0.14662
   C        0.55995         2.18226        -0.78087
   C        0.11687         3.50494        -0.55963
   C        0.15227         4.23668         0.61803
   C       -0.34285         5.52248         0.45462
   C       -0.75955         5.78955        -0.86672
   S       -0.51719         4.45713        -1.89865
   C       -1.26205         7.11183        -0.91502
   C       -1.16514         7.67830         0.37080
   C       -0.59916         6.68947         1.27618
   C       -0.39255         6.80681         2.61900
   C       -0.69938         7.98716         3.32820
   N       -0.94683         8.94922         3.89989
   C        0.13890         5.74068         3.37544
   N        0.57558         4.86645         3.97535
   C       -1.63119         8.98625         0.42716
   C       -2.08783         9.42501        -0.80709
   S       -1.93858         8.19613        -2.05276
   C       -2.62139        10.69914        -1.09881
   C       -3.14141        11.19486        -2.27799
   C       -3.60256        12.53650        -2.21590
   C       -4.11215        12.92959        -3.48743
   C       -4.05495        11.97389        -4.44896
   S       -3.34996        10.48687        -3.84680
   C       -4.50732        12.08003        -5.85781
   F       -4.61233        14.15246        -3.74023
   C       -3.43218        13.10463        -0.95548
   S       -2.69871        11.93904         0.12709
   C       -3.74296        14.38473        -0.44321
   C       -3.43292        14.82075         0.84114
   C       -3.87188        16.11615         1.07407
   C       -4.53099        16.67865        -0.03696
   S       -4.59556        15.60876        -1.36761
   C       -4.94944        17.98491         0.30306
   C       -4.54878        18.25464         1.63310
   C       -3.86821        17.08591         2.16077
   C       -3.34775        16.91478         3.40878
   C       -3.44007        17.89301         4.42306
   N       -3.52031        18.65620         5.27424
   C       -2.68825        15.72338         3.78123
   N       -2.14688        14.75795         4.07955
   C       -4.89612        19.52716         2.06249
   C       -5.56863        20.24660         1.08256
   S       -5.77624        19.29463        -0.39717
   C       -6.15557        21.52704         1.09317
   C       -5.99971        22.55608         1.98191
   C       -6.78032        23.78074         1.95673
   C       -7.95125        23.99052         1.27318
   C       -8.68038        25.19733         1.31105
   N       -9.31776        26.15220         1.29259
   C       -8.61746        23.03782         0.47476
   N       -9.23017        22.31299        -0.17289
   C       -6.15749        24.73000         2.87092
   C       -5.05493        24.08872         3.50201
   C       -4.92520        22.71239         2.99598
   O       -4.06895        21.91370         3.31260
   C       -4.28000        24.72468         4.42822
   C       -4.57989        26.06127         4.77386
   C       -5.67655        26.71464         4.14088
   C       -6.45958        26.02906         3.18358
   C       -5.96457        28.04949         4.49086
   C       -5.20910        28.70759         5.42293
   C       -4.13045        28.06272         6.04628
   C       -3.82244        26.76761         5.72854
   H        3.51329        -1.99358         0.52143
   H        1.04749         0.22637         4.24766
   H        2.22539        -1.16402         5.84826
   H        3.86618        -2.93090         6.35144
   H        5.08680        -4.04831         4.52700
   H        4.67838        -3.40641         2.18451
   H        0.82177         1.92003        -1.80107
   H        0.56381         3.85268         1.53342
   H       -1.64967         9.60599         1.30571
   H       -4.89888        13.07718        -6.04495
   H       -5.28696        11.34706        -6.06336
   H       -3.67988        11.88718        -6.53982
   H       -2.90975        14.20428         1.54998
   H       -4.67587        19.93208         3.03264
   H       -6.81996        21.70492         0.25529
   H       -3.45165        24.21167         4.89381
   H       -7.27857        26.55421         2.71849
   H       -6.79709        28.54144         4.00956
   H       -5.43926        29.72928         5.68561
   H       -3.54494        28.59708         6.77944
   H       -2.99329        26.26537         6.20503
*
