# ORCA input file
# SCF done       -173.526446475763          0.000667518723
! CAM-B3LYP def2-SVP def2/J RIJCOSX Grid4 TightSCF
%maxcore 5000
%tddft
    Mode sTDDFT
    Ethresh 5.0
    maxcore 5000
end

%pal
  nprocs 6
  end
* xyz 0 1
   C        1.32704        -0.99147         2.35825
   C        0.66395        -0.73569         3.55862
   C        0.62727         0.70764         3.98747
   O        1.47748         1.47212         3.62749
   O       -0.38130         1.11505         4.76086
   C        0.13633        -1.79732         4.31420
   C       -0.54806        -1.60001         5.53652
   N       -1.12302        -1.48749         6.52323
   C        0.29564        -3.12101         3.88621
   C        0.96011        -3.34881         2.70340
   C        1.45790        -2.29637         1.91676
   C        2.05938        -2.86426         0.71167
   C        2.43279        -2.13587        -0.38493
   C        2.33400        -0.72872        -0.47254
   N        2.27929         0.40669        -0.62471
   C        2.90374        -2.66230        -1.60749
   N        3.27782        -3.00833        -2.63660
   C        2.06955        -4.31122         0.86444
   C        1.28051        -4.64524         2.06477
   O        0.91244        -5.73171         2.46587
   C        2.73963        -5.15519         0.01483
   C        2.90470        -6.54948         0.02686
   C        2.50956        -7.55078         0.90221
   C        2.90917        -8.83011         0.53786
   C        2.61518       -10.03220         1.36695
   C        3.62583        -8.84548        -0.66382
   S        3.81090        -7.24579        -1.30364
   C        4.12657        -9.95197        -1.39223
   C        4.91569        -9.92730        -2.53088
   C        5.18005       -11.18040        -3.08271
   C        6.00178       -11.36555        -4.31249
   C        4.55874       -12.20758        -2.37427
   S        3.70934       -11.58012        -0.98823
   C        4.42313       -13.60045        -2.64915
   C        3.44497       -14.32141        -1.99749
   C        3.10902       -15.64265        -2.23984
   C        3.95718       -16.49844        -3.06944
   C        4.99129       -16.01675        -3.79745
   S        5.44356       -14.35968        -3.85447
   C        3.42729       -17.81018        -2.91213
   C        2.31113       -17.77486        -2.07088
   C        1.73313       -19.05043        -1.89970
   C        2.41162       -20.00192        -2.59425
   S        3.76415       -19.39459        -3.48611
   C        2.06225       -16.41289        -1.67440
   C        0.99008       -15.92312        -0.90737
   C        0.59222       -14.60823        -0.94938
   C       -0.29296       -14.00188        -0.05380
   C       -0.51744       -12.63854        -0.02876
   C       -1.37538       -11.91711         0.88449
   C       -2.23227       -12.45249         1.81506
   C       -3.04900       -11.68543         2.67026
   N       -3.74020       -11.11829         3.39093
   C       -2.43916       -13.82793         2.04225
   N       -2.66579       -14.92701         2.28854
   C       -1.20647       -10.48758         0.62616
   C       -0.31613       -10.33042        -0.46311
   C        0.16290       -11.65904        -0.89333
   O        1.00057       -11.85557        -1.76104
   C        0.02373        -9.10285        -0.97623
   C       -0.53887        -7.96847        -0.38122
   C       -1.40152        -8.13198         0.72735
   C       -1.74810        -9.37683         1.24288
   S       -1.98149        -6.60590         1.31594
   C       -1.09570        -5.78526         0.06546
   C       -0.38117        -6.60255        -0.74319
  Br       -1.21324        -3.91563        -0.06964
   H        1.73018        -0.15055         1.81656
   H       -0.99701         0.42199         5.04062
   H       -0.08919        -3.94143         4.47319
   H        3.25754        -4.67719        -0.80799
   H        1.94092        -7.34313         1.78959
   H        2.10234        -9.73334         2.27727
   H        3.53435       -10.55404         1.63175
   H        1.98054       -10.73291         0.82532
   H        5.27958        -9.00624        -2.95256
   H        6.31101       -10.39834        -4.69894
   H        5.43457       -11.88476        -5.08406
   H        6.89171       -11.95585        -4.09690
   H        2.88636       -13.79009        -1.24288
   H        5.60048       -16.64151        -4.43121
   H        0.86815       -19.25822        -1.29684
   H        2.20095       -21.05226        -2.64502
   H        0.46105       -16.62216        -0.27082
   H        0.99461       -13.97754        -1.72492
   H       -0.77033       -14.62612         0.68989
   H        0.69308        -9.01973        -1.81869
   H       -2.41665        -9.44518         2.08453
   H        0.22018        -6.26042        -1.56611
*
