# ORCA input file
# SCF done       -219.960102520753          0.000925132541
! CAM-B3LYP def2-SVP def2/J RIJCOSX Grid4 TightSCF
%maxcore 5000
%tddft
    Mode sTDDFT
    Ethresh 5.0
    maxcore 5000
end

%pal
  nprocs 6
  end
* xyz 0 1
   C        3.42623        -9.27475        -3.05588
   O        4.08003        -8.41552        -2.51010
   C        2.12628        -9.81189        -2.66329
   C        1.65397       -10.73691        -3.58661
   C        0.39010       -11.25383        -3.23910
   C       -0.05548       -10.70525        -2.07364
   S        1.03192        -9.56260        -1.37512
   C        2.63191       -10.89721        -4.64129
   C        2.55308       -11.80451        -5.66212
   C        1.43717       -12.65463        -5.81403
   N        0.53441       -13.34875        -5.95435
   C        3.54904       -12.01888        -6.63596
   N        4.32899       -12.25129        -7.44571
   C        3.72334        -9.97648        -4.34811
   C        4.77075        -9.67861        -5.15336
   C        5.84972        -8.78731        -4.80979
   C        6.15714        -7.78093        -5.68683
   S        7.25148        -6.62152        -5.07299
   C        7.39909        -7.53586        -3.60034
   C        6.63101        -8.70853        -3.59739
   C        6.80311        -9.63964        -2.54243
   C        6.22448       -11.02391        -2.68773
   C        6.90321       -11.78942        -3.82541
   C        7.58611        -9.30051        -1.44651
   C        7.79137       -10.26491        -0.30681
   C        6.60479       -10.23841         0.65939
   C        8.22028        -8.03639        -1.38241
   C        9.04725        -7.45172        -0.35298
   C        9.60679        -6.27880        -0.75698
   S        9.16396        -5.78042        -2.34380
   C        8.17702        -7.19734        -2.50742
   C        9.26578        -7.94444         0.99945
   C       10.45752        -7.92751         1.60481
   C       10.64370        -8.34481         2.98750
   C        9.75430        -7.95155         3.94029
   S       10.13282        -8.46902         5.53625
   C       11.54769        -9.27219         4.93209
   C       11.71238        -9.14008         3.54539
   C       12.80036        -9.79888         2.92046
   C       12.86641        -9.78702         1.41379
   C       13.74929        -8.67188         0.84854
   C       13.73662       -10.48087         3.68593
   C       14.99168       -11.03880         3.07413
   C       16.16923       -10.08798         3.31325
   C       13.55385       -10.62935         5.08510
   C       14.28770       -11.39775         6.06742
   C       13.70957       -11.31887         7.29963
   S       12.29710       -10.34640         7.38062
   C       12.43614       -10.02443         5.68183
   C       15.49900       -12.19518         5.91865
   C       15.68467       -13.35517         6.55789
   C       16.97413       -14.04490         6.59802
   C       17.55197       -14.27501         7.80769
   S       19.19357       -14.79290         7.73272
   C       19.13389       -14.71358         6.00090
   C       17.86263       -14.36981         5.51072
   C       17.61599       -14.48373         4.12112
   C       16.18743       -14.58644         3.65522
   C       15.76371       -16.05956         3.66510
   C       18.67110       -14.68161         3.24163
   C       18.42980       -14.74435         1.75575
   C       18.37719       -13.34024         1.14686
   C       19.98757       -14.83872         3.73780
   C       21.23311       -15.06929         3.03927
   C       22.24797       -15.39685         3.90304
   S       21.80734       -15.38641         5.55299
   C       20.17789       -14.95415         5.12364
   C       21.50375       -14.89563         1.63878
   C       22.45238       -15.58843         0.96204
   C       22.75613       -15.30830        -0.38933
   C       23.73874       -15.83020        -1.17498
   C       23.65296       -15.60897        -2.65201
   O       22.90426       -14.84950        -3.22450
   C       24.63269       -16.53718        -3.20424
   C       25.31674       -17.20132        -2.19342
   C       24.86413       -16.70477        -0.90418
   C       25.53740       -16.92560         0.26997
   C       26.63733       -17.80815         0.33543
   N       27.52094       -18.53489         0.42405
   C       25.31614       -16.27706         1.49856
   N       25.23115       -15.76356         2.52285
   C       26.27085       -18.10922        -2.69233
   C       26.27616       -18.11025        -4.05593
   S       25.14673       -17.01547        -4.76217
   H       -0.16022       -11.97934        -3.80882
   H       -0.98080       -10.91124        -1.57205
   H        4.76831       -10.04611        -6.17250
   H        5.70935        -7.62062        -6.64932
   H        6.34483       -11.59230        -1.76978
   H        5.15348       -10.96957        -2.87873
   H        7.97705       -11.83741        -3.65757
   H        6.72968       -11.31028        -4.78562
   H        6.51516       -12.80442        -3.87762
   H        8.70363        -9.99942         0.22677
   H        7.93649       -11.27782        -0.68467
   H        6.43600        -9.22980         1.02948
   H        6.78896       -10.89616         1.50634
   H        5.69290       -10.55758         0.16048
   H       10.24000        -5.63854        -0.17402
   H        8.40141        -8.31227         1.53269
   H       11.32341        -7.57196         1.06747
   H        8.89151        -7.33187         3.79100
   H       13.22694       -10.74999         1.04789
   H       11.85100        -9.67199         1.03300
   H       14.80178        -8.89885         0.99073
   H       13.54122        -7.72568         1.34345
   H       13.56967        -8.55542        -0.21850
   H       14.87860       -11.18848         2.00207
   H       15.20614       -12.00881         3.51881
   H       16.01422        -9.14831         2.78926
   H       17.09621       -10.53373         2.95691
   H       16.27629        -9.85608         4.37018
   H       14.07174       -11.76995         8.20287
   H       16.30522       -11.79901         5.32015
   H       14.90302       -13.76658         7.18316
   H       17.10880       -14.11028         8.77088
   H       15.52974       -14.05005         4.33440
   H       16.05724       -14.17261         2.65696
   H       15.82590       -16.45809         4.67516
   H       16.40629       -16.66015         3.02520
   H       14.73761       -16.15635         3.31773
   H       17.49366       -15.25853         1.54275
   H       19.22407       -15.32556         1.28556
   H       17.51680       -12.79249         1.52492
   H       18.29915       -13.39834         0.06337
   H       19.26755       -12.76970         1.40351
   H       23.27660       -15.56646         3.64295
   H       20.97416       -14.11013         1.11916
   H       22.96894       -16.39690         1.45483
   H       22.08970       -14.62360        -0.90600
   H       26.91073       -18.73025        -2.09368
   H       26.89607       -18.70180        -4.70097
*
