# ORCA input file
# SCF done       -180.251665624304          0.000946569598
! CAM-B3LYP def2-SVP def2/J RIJCOSX Grid4 TightSCF
%maxcore 5000
%tddft
    Mode sTDDFT
    Ethresh 5.0
    maxcore 5000
end

%pal
  nprocs 6
  end
* xyz 0 1
   C        0.13822         0.69143        -1.49908
   C       -0.12433        -0.66129        -1.56856
   C        0.86024        -1.64703        -1.76420
   N        1.61346        -2.50186        -1.91888
   C       -1.39207        -1.26159        -1.45489
   N       -2.38449        -1.83760        -1.37571
   C        1.46942         1.28925        -1.61686
   C        1.34532         2.69278        -1.48508
   C        2.41990         3.54292        -1.55347
   C        3.68453         2.98065        -1.76502
   C        3.79908         1.57892        -1.89579
   C        2.70908         0.71778        -1.82452
   S        5.44861         1.09401        -2.15699
   C        5.95255         2.76154        -2.08481
   C        4.94162         3.63698        -1.87790
  Br        7.76778         3.19004        -2.29653
   C       -0.07998         3.03533        -1.27919
   O       -0.52828         4.15747        -1.12793
   C       -0.80406         1.75474        -1.30129
   C       -2.18035         1.62822        -1.16164
   C       -3.05491         2.68314        -0.97814
   C       -4.43148         2.52618        -0.85631
   C       -5.37712         3.54829        -0.67987
   C       -6.67353         3.10219        -0.60215
   C       -6.79404         1.71140        -0.71226
   S       -5.22816         0.97088        -0.91550
   C       -7.96977         0.95228        -0.68074
   C       -9.28337         1.41581        -0.55599
   C      -10.22429         0.41144        -0.57224
   C       -9.68430        -0.87062        -0.70569
   S       -7.94245        -0.78455        -0.81293
   C      -10.39660        -2.07292        -0.75669
   C       -9.83672        -3.31806        -0.86799
   C      -10.56924        -4.50857        -0.92909
   C      -10.06187        -5.80781        -1.01704
   C      -11.02942        -6.78653        -1.06138
   C      -12.33385        -6.28624        -1.01516
   S      -12.31534        -4.54410        -0.90749
   C      -13.53728        -6.99569        -1.05057
   C      -13.72426        -8.38383        -1.10781
   C      -15.04210        -8.75986        -1.13089
   C      -15.94962        -7.68421        -1.09881
   S      -15.07393        -6.17029        -1.02821
   C      -17.32820        -7.78797        -1.13062
   C      -18.25779        -6.75612        -1.11044
   S      -17.82059        -5.06707        -0.99448
   C      -19.49398        -4.57443        -1.01417
   C      -20.33364        -5.67937        -1.16285
   C      -19.65757        -6.90003        -1.18565
   S      -20.36194        -8.49366        -1.38267
   C      -21.78300        -8.50118        -0.21473
   C      -23.08674        -8.79068        -0.92875
   S      -22.07502        -5.46617        -1.38885
   C      -22.09183        -4.61859        -3.02473
   C      -22.97045        -3.38452        -3.00300
   C      -19.89212        -3.23171        -0.90013
   C      -19.03756        -2.17150        -0.91260
   C      -19.45998        -0.83316        -0.79708
   C      -20.74859        -0.30699        -0.63394
   N      -21.89516        -1.00711        -0.53963
   C      -23.00214        -0.32774        -0.37038
   C      -24.26747        -1.10893        -0.24555
   C      -23.01031         1.10725        -0.30990
   C      -24.28856         1.85758        -0.13747
   N      -21.91547         1.81042        -0.40588
   C      -20.75812         1.12741        -0.56121
   C      -19.49838         1.67506        -0.66895
   S      -18.30695         0.46773        -0.85263
   H        2.29179         4.60892        -1.44805
   H        2.85182        -0.34424        -1.93222
   H        5.07321         4.70142        -1.80845
   H       -2.60875         0.63444        -1.20397
   H       -2.66307         3.68893        -0.92981
   H       -5.08481         4.58121        -0.61641
   H       -7.52440         3.74565        -0.46860
   H       -9.51995         2.45997        -0.46139
   H      -11.28432         0.57563        -0.49046
   H      -11.47567        -1.99306        -0.70124
   H       -8.75877        -3.40766        -0.91123
   H       -9.00450        -6.00259        -1.04499
   H      -10.81835        -7.83833        -1.12999
   H      -12.90029        -9.07377        -1.12849
   H      -15.38177        -9.77942        -1.17407
   H      -17.73854        -8.78841        -1.18571
   H      -21.80057        -7.53299         0.27970
   H      -21.55189        -9.28060         0.51208
   H      -23.31109        -8.00116        -1.64105
   H      -23.89548        -8.84386        -0.20311
   H      -23.02931        -9.73812        -1.45956
   H      -22.46386        -5.35324        -3.74026
   H      -21.05903        -4.37095        -3.26246
   H      -23.98457        -3.64529        -2.70716
   H      -23.00226        -2.94497        -3.99846
   H      -22.58156        -2.64259        -2.30892
   H      -20.94950        -3.04127        -0.78362
   H      -17.97490        -2.34341        -1.03026
   H      -24.04026        -2.17119        -0.23332
   H      -24.93020        -0.89395        -1.08340
   H      -24.78928        -0.84306         0.67217
   H      -24.98678         1.61125        -0.93598
   H      -24.08057         2.92358        -0.15441
   H      -24.75609         1.59856         0.81160
   H      -19.22851         2.71093        -0.64498
*
