# ORCA input file
# SCF done       -182.055104915589          0.000760395431
! CAM-B3LYP def2-SVP def2/J RIJCOSX Grid4 TightSCF
%maxcore 5000
%tddft
    Mode sTDDFT
    Ethresh 5.0
    maxcore 5000
end

%pal
  nprocs 6
  end
* xyz 0 1
   C      -10.61283         2.11022        -5.24386
   C       -9.87503         2.79681        -6.17626
   C      -10.35423         3.18701        -7.44265
   N      -10.68270         3.52723        -8.48903
   C       -8.54396         3.20660        -5.98376
   N       -7.45925         3.56910        -5.87352
   C      -12.00676         1.70262        -5.39833
   C      -12.42956         1.04613        -4.21366
   C      -13.70221         0.55565        -4.05146
   C      -14.60447         0.72171        -5.10790
   C      -14.17457         1.37754        -6.28591
   C      -12.88587         1.87239        -6.45025
   S      -15.44830         1.47927        -7.46190
   C      -16.52791         0.65194        -6.37044
   C      -15.96423         0.31501        -5.18579
  Br      -18.29539         0.31328        -6.89728
   C      -11.30860         1.01601        -3.26504
   O      -11.29632         0.52779        -2.14041
   C      -10.18770         1.68484        -3.93260
   C       -8.96516         1.83015        -3.31757
   N       -8.79041         1.40327        -2.06380
   C       -7.67572         1.46233        -1.26965
   S       -7.49640         0.14128        -0.14649
   C       -6.00690         0.82316         0.40806
   N       -5.31516         0.12613         1.40432
   O       -4.29143         0.61460         1.84595
   O       -5.78931        -0.94424         1.75483
   C       -5.67583         1.98468        -0.23214
   C       -6.62680         2.38455        -1.20203
   C       -6.39909         3.59572        -1.94564
   C       -7.26307         4.34711        -2.66114
   C       -6.83838         5.47238        -3.43163
   S       -7.88424         6.85542        -3.54667
   C       -6.68333         7.79917        -4.29278
   C       -5.52036         7.08988        -4.49471
   C       -5.61653         5.73041        -4.05430
   C       -4.53775         4.83249        -4.32038
   C       -3.36348         5.37190        -4.79178
   C       -3.22959         6.72931        -5.13054
   C       -4.29722         7.58655        -5.04134
   O       -4.31793         8.88577        -5.42272
   C       -3.14297         9.44308        -5.96349
   C       -4.73136         3.40239        -4.21336
   C       -3.89198         2.52908        -3.61744
   C       -4.22445         1.16601        -3.41847
   C       -3.67537         0.39759        -2.43079
   C       -4.03351        -0.92250        -2.04837
   C       -3.42488        -1.36048        -0.91261
   C       -2.55797        -0.40871        -0.32537
   S       -2.47739         1.03399        -1.30623
   C       -1.91802        -0.45657         0.89581
   C       -1.90527        -1.49218         1.85804
   C       -1.26700        -1.15241         3.00847
   C       -0.75920         0.17758         3.02809
   S       -1.07395         0.94793         1.49579
   C       -0.09103         0.74368         4.08414
   C        0.34162         2.07906         4.23029
   S        1.53189         2.45986         5.45591
   C        1.53580         4.13631         5.07721
   C        0.66186         4.39793         4.06453
   C       -0.01740         3.25580         3.58599
   O       -0.98881         3.36429         2.63217
   C       -1.27757         4.56079         2.09699
   O       -2.13411         4.65893         1.26127
   C       -0.49519         5.79357         2.57428
   O       -0.69479         6.87506         2.10034
   O        0.42976         5.64394         3.54549
   H      -13.99503         0.06218        -3.13805
   H      -12.60774         2.36508        -7.36680
   H      -16.48517        -0.19808        -4.39818
   H       -8.11914         2.27931        -3.81675
   H       -9.61217         0.89734        -1.68909
   H       -4.78528         2.54369        -0.00266
   H       -5.37778         3.94004        -1.88342
   H       -8.33119         4.18260        -2.60938
   H       -6.86896         8.82645        -4.53182
   H       -2.52665         4.71516        -4.97738
   H       -2.27917         7.06536        -5.51275
   H       -3.38837        10.47708        -6.19948
   H       -2.83909         8.92363        -6.87761
   H       -2.32172         9.42052        -5.24077
   H       -5.67218         3.04444        -4.61087
   H       -2.98859         2.88878        -3.14096
   H       -5.02325         0.74043        -4.01205
   H       -4.74763        -1.49426        -2.61514
   H       -3.59844        -2.32125        -0.46154
   H       -2.38152        -2.44030         1.68338
   H       -1.16799        -1.79687         3.86398
   H        0.15698         0.08888         4.90900
   H        2.15942         4.82425         5.60711
*
