# ORCA input file
# SCF done       -158.601956974796          0.000648705182
! CAM-B3LYP def2-SVP def2/J RIJCOSX Grid4 TightSCF
%maxcore 5000
%tddft
    Mode sTDDFT
    Ethresh 5.0
    maxcore 5000
end

%pal
  nprocs 6
  end
* xyz 0 1
   C       -2.02252         2.75695         7.69451
   C       -2.27714         2.75484         9.04638
   C       -1.77405         3.71537         9.94562
   N       -1.39709         4.46354        10.73179
   C       -3.06988         1.81569         9.73487
   N       -3.70054         1.09828        10.37433
   C       -1.20386         3.74936         6.99899
   C       -1.19076         3.43599         5.61810
   C       -0.50145         4.17928         4.69302
   C        0.21591         5.28931         5.15343
   C        0.19811         5.59558         6.53326
   C       -0.50317         4.84279         7.46908
   S        1.15406         7.00312         6.88769
   C        1.55867         7.15753         5.19883
   C        1.00768         6.20635         4.40878
  Br        2.67430         8.55789         4.63774
   C       -2.00383         2.22544         5.39483
   O       -2.20887         1.68866         4.31708
   C       -2.49444         1.81650         6.70820
   C       -3.26404         0.69649         6.95864
   C       -3.74123        -0.27205         6.08539
   S       -3.53368        -0.36917         4.33892
   C       -4.48826        -1.38133         6.50609
   S       -5.06532        -1.94336         8.03073
   C       -5.75909        -3.31377         7.17065
   N       -5.58447        -3.34932         5.90544
   C       -4.87085        -2.27203         5.48812
   C       -4.43626        -1.86506         4.21476
   C       -4.66500        -2.54018         3.01812
   C       -4.27632        -2.04112         1.79262
   C       -4.42096        -2.61920         0.53754
   C       -4.25932        -1.92568        -0.68564
   C       -3.84983        -0.60752        -0.93454
   C       -3.74037        -0.17392        -2.22875
   C       -4.00941        -1.03432        -3.31241
   C       -4.42759        -2.31970        -3.11106
   C       -4.59483        -2.78614        -1.79082
   C       -4.96707        -4.03072        -1.27291
   C       -4.76971        -4.00363         0.18344
   C       -4.75842        -5.08448         0.97347
   N       -5.37792        -5.15542        -1.90818
   C       -6.05503        -5.29918        -3.07344
   S       -6.98869        -4.01071        -3.77825
   C       -7.64611        -5.14411        -4.92145
   N       -8.53891        -4.64575        -5.87245
   O       -9.00920        -5.42883        -6.67906
   O       -8.78277        -3.44982        -5.81918
   C       -7.18450        -6.42175        -4.76145
   C       -6.24915        -6.53935        -3.71329
   C       -5.60259        -7.76781        -3.38167
   C       -4.42279        -7.89534        -2.70977
   C       -3.78913        -9.09779        -2.33973
   C       -4.28150       -10.40109        -2.25028
   C       -5.57410       -10.95147        -2.39638
   C       -5.75377       -12.29400        -2.24477
   C       -4.67482       -13.16426        -1.93088
   C       -3.42098       -12.68274        -1.73406
   C       -3.18739       -11.28918        -1.87401
   C       -2.04508       -10.55260        -1.70936
   C       -2.35757        -9.16439        -1.96429
   C       -1.48632        -8.15016        -1.87428
   H       -0.51209         3.91349         3.64761
   H       -0.48289         5.11913         8.50974
   H        1.15305         6.15084         3.34542
   H       -3.54326         0.51299         7.98963
   H       -6.29628        -4.06350         7.71695
   H       -5.22119        -3.46137         3.10234
   H       -3.85171        -1.04413         1.80639
   H       -3.61250         0.05111        -0.11360
   H       -3.42536         0.83804        -2.43421
   H       -3.87395        -0.66522        -4.31756
   H       -4.59374        -2.97394        -3.95150
   H       -4.51491        -5.02517         2.01726
   H       -4.95967        -6.07748         0.60084
   H       -5.29916        -6.01683        -1.37153
   H       -7.49326        -7.23336        -5.39497
   H       -6.07551        -8.65102        -3.78221
   H       -3.85519        -6.99536        -2.50503
   H       -6.42068       -10.31512        -2.60120
   H       -6.73990       -12.72081        -2.35429
   H       -4.87850       -14.22021        -1.83205
   H       -2.59926       -13.33079        -1.46837
   H       -1.07128       -10.91359        -1.43891
   H       -0.46101        -8.32903        -1.59672
   H       -1.75354        -7.12520        -2.06931
*
