# ORCA input file
# SCF done       -135.095378810032          0.000433147082
! CAM-B3LYP def2-SVP def2/J RIJCOSX Grid4 TightSCF
%maxcore 5000
%tddft
    Mode sTDDFT
    Ethresh 5.0
    maxcore 5000
end

%pal
  nprocs 6
  end
* xyz 0 1
   C       -3.28338        -3.41850         4.92909
   C       -2.98947        -3.14894         3.65120
   C       -3.59359        -2.16057         2.80109
   C       -3.08681        -2.11226         1.55195
   C       -2.04349        -3.05296         1.30372
   S       -1.73574        -4.00849         2.74215
   C       -1.34118        -3.23116         0.14207
   C       -1.48466        -2.52522        -1.08461
   C       -0.63440        -2.92438        -2.05750
   C        0.24921        -3.98295        -1.67559
   S       -0.07234        -4.43734         0.00021
   C        1.23899        -4.51328        -2.43639
   C        2.12216        -5.58879        -2.04781
   C        1.71524        -6.78316        -1.51373
   S        0.09998        -7.43167        -1.30642
   S        3.04683        -7.83813        -1.15378
   C        4.17518        -6.64714        -1.73105
   O        5.50250        -6.88041        -1.69271
   C        3.55796        -5.51115        -2.19119
   C        4.22510        -4.33820        -2.69319
   C        5.55652        -4.17606        -2.74330
   N        6.14986        -3.03488        -3.22408
   C        7.47402        -2.76754        -3.19486
   S        8.59250        -3.88754        -2.48754
   C        9.89287        -2.78259        -2.82971
   N       11.17608        -3.16278        -2.46510
   O       12.09230        -2.38771        -2.69789
   O       11.30027        -4.25739        -1.92994
   C        9.47417        -1.63137        -3.44716
   C        8.08932        -1.59791        -3.67286
   C        7.37422        -0.53388        -4.32936
   C        7.87738         0.67736        -4.62889
   C        7.11489         1.65261        -5.35161
   C        7.53044         2.86531        -5.74303
   C        8.87210         3.44587        -5.41799
   C        6.66596         3.75447        -6.61337
   N        5.55114         3.09999        -7.25674
   C        5.75961         2.01090        -8.06726
   C        6.90268         1.70141        -8.69605
   C        7.06070         0.49978        -9.48411
   C        6.56805        -0.71466        -9.10265
   S        5.62249        -1.08382        -7.66707
   S        6.95814        -1.97919       -10.24045
   C        7.86222        -0.84770       -11.20674
   O        8.48755        -1.26120       -12.32728
   C        7.82643         0.42417       -10.70272
   C        8.42840         1.59603       -11.30898
   C        9.27607         1.59955       -12.33076
   H       -4.05222        -2.86950         5.44368
   H       -2.76763        -4.18434         5.47871
   H       -4.38325        -1.53061         3.17088
   H       -3.42056        -1.43354         0.78701
   H       -2.21296        -1.74256        -1.20100
   H       -0.59654        -2.50531        -3.04791
   H        1.42074        -4.06234        -3.40365
   H       -0.49902        -6.48353        -2.02717
   H        5.68627        -7.75237        -1.32333
   H        3.58120        -3.53772        -3.03108
   H        6.23800        -4.93663        -2.39967
   H        5.54218        -2.31228        -3.59008
   H       10.16432        -0.85973        -3.73327
   H        6.35376        -0.74582        -4.62535
   H        8.88880         0.92642        -4.34940
   H        6.12234         1.32435        -5.63194
   H        9.60245         3.14918        -6.17190
   H        9.22966         3.10857        -4.44953
   H        8.82253         4.53302        -5.41016
   H        7.29989         4.19795        -7.38989
   H        6.26975         4.58115        -6.01354
   H        4.71093         3.05492        -6.70177
   H        4.87460         1.41305        -8.24084
   H        7.77629         2.32750        -8.60614
   H        6.19197        -2.26878        -7.42927
   H        8.31303        -2.19521       -12.49148
   H        8.12414         2.53157       -10.85841
   H        9.60384         0.69268       -12.80573
   H        9.66844         2.52215       -12.72316
*
