# ORCA input file
# SCF done       -156.793912634957          0.000910436163
! CAM-B3LYP def2-SVP def2/J RIJCOSX Grid4 TightSCF
%maxcore 5000
%tddft
    Mode sTDDFT
    Ethresh 5.0
    maxcore 5000
end

%pal
  nprocs 6
  end
* xyz 0 1
   C       14.68988        -3.02628        -0.14963
   C       13.87518        -3.76169        -0.91845
   C       14.15180        -4.32020        -2.21093
   C       13.12938        -5.02286        -2.74679
   C       11.96465        -5.07791        -1.93160
   S       12.22544        -4.19324        -0.44111
   C       10.77861        -5.71421        -2.20998
   C       10.42576        -6.44810        -3.36853
   C        9.16913        -6.95933        -3.33073
   C        8.42681        -6.65498        -2.15324
   S        9.44035        -5.70482        -1.07886
   C        7.15401        -7.12321        -1.94994
   C        6.17578        -6.96732        -0.94371
   S        4.93200        -8.20343        -0.98173
   C        4.09978        -7.50032         0.36812
   C        4.73836        -6.33600         0.78627
   C        5.90522        -6.03660         0.06176
   C        6.69622        -4.78500         0.27424
   C        6.53540        -3.82013        -0.90126
   C        4.22267        -5.51211         1.92806
   C        4.88361        -5.93058         3.24335
   C        2.92987        -8.09974         0.89911
   C        2.32801        -9.20521         0.39572
   C        1.13987        -9.75872         0.94347
   C        0.49447       -10.82306         0.42272
   C       -0.73402       -11.34596         0.97328
   N       -1.29976       -12.36556         0.31647
   C       -2.43449       -12.83452         0.79913
   C       -3.04046       -12.31770         1.93407
   C       -2.37281       -11.25922         2.56624
   N       -1.22678       -10.78882         2.07717
   C       -2.83967       -10.59962         3.77095
   C       -4.02184       -10.82111         4.37073
   C       -4.42751       -10.13627         5.55852
   C       -5.76957       -10.28281         6.27383
   N       -5.86731        -9.52690         7.34960
   C       -4.69345        -8.86522         7.42008
   C       -3.88389        -7.96332         8.06319
   S       -2.53132        -8.08684         6.94019
   C       -3.80824        -9.22432         6.33119
   C       -6.74614       -11.17861         5.79894
   C       -8.05114       -11.34447         6.17356
   C       -8.91957       -12.37600         5.63958
   C       -8.62958       -13.26847         4.63297
   C       -9.52755       -14.24979         4.16458
   N      -10.20629       -15.07001         3.73382
   C       -7.43084       -13.33439         3.89555
   N       -6.49643       -13.45485         3.23503
   C      -10.19434       -12.29500         6.34315
   C      -10.15277       -11.19500         7.23268
   C       -8.83335       -10.52521         7.13965
   O       -8.51873        -9.50488         7.70074
   C      -11.21388       -10.84581         8.03040
   C      -12.37240       -11.62689         7.95601
   C      -12.40297       -12.72955         7.06974
   C      -11.33167       -13.07837         6.25742
   S      -13.92868       -13.56050         7.13603
   C      -14.49583       -12.42953         8.33565
   C      -13.59191       -11.47879         8.67156
  Br      -16.22828       -12.61023         9.03125
   H       15.68576        -2.78656        -0.47792
   H       14.37996        -2.65500         0.80991
   H       15.10770        -4.16843        -2.67993
   H       13.16402        -5.50919        -3.70557
   H       11.10577        -6.57304        -4.19177
   H        8.73168        -7.54362        -4.12143
   H        6.83641        -7.81398        -2.72590
   H        7.74949        -5.03086         0.40295
   H        6.36895        -4.29043         1.18737
   H        6.86603        -4.28116        -1.82811
   H        7.12632        -2.92377        -0.73149
   H        5.49179        -3.53386        -1.01570
   H        3.14197        -5.63100         2.01063
   H        4.41538        -4.45487         1.74051
   H        4.66979        -6.97524         3.45793
   H        4.50943        -5.32350         4.06431
   H        5.96289        -5.80919         3.18467
   H        2.49510        -7.62764         1.76961
   H        2.75239        -9.69050        -0.47436
   H        0.72032        -9.28737         1.82229
   H        0.86026       -11.33170        -0.45724
   H       -2.87517       -13.65867         0.25178
   H       -3.96720       -12.72369         2.30159
   H       -2.15236        -9.86809         4.17478
   H       -4.71277       -11.53741         3.95056
   H       -3.96155        -7.34431         8.93503
   H       -6.38925       -11.83944         5.02299
   H      -11.15074        -9.99721         8.69333
   H      -11.40724       -13.92708         5.59872
   H      -13.77561       -10.70394         9.39327
*
