# ORCA input file
# SCF done       -228.328575626204          0.000397454987
! CAM-B3LYP def2-SVP def2/J RIJCOSX Grid4 TightSCF
%maxcore 5000
%tddft
    Mode sTDDFT
    Ethresh 5.0
    maxcore 5000
end

%pal
  nprocs 6
  end
* xyz 0 1
   C       -4.48779        -2.00574        -0.79441
   C       -3.13804        -2.23319        -0.77671
   C       -2.54574        -3.48620        -1.04012
   N       -2.01667        -4.48435        -1.24219
   C       -2.16505        -1.23667        -0.54502
   N       -1.32151        -0.47238        -0.39892
   C       -5.51888        -2.97066        -1.14849
   C       -6.76466        -2.29933        -1.22157
   C       -7.93513        -2.94608        -1.53779
   C       -7.87363        -4.31891        -1.79728
   C       -6.62477        -4.98182        -1.71791
   C       -5.44154        -4.32899        -1.39631
   S       -6.77831        -6.67709        -2.06417
   C       -8.49295        -6.47593        -2.30972
   C       -8.93048        -5.20522        -2.14132
  Br       -9.54316        -7.96113        -2.76413
   C       -6.58431        -0.87520        -0.88038
   O       -7.46256        -0.04765        -0.77066
   C       -5.13554        -0.72470        -0.57207
   C       -4.58777         0.36381         0.02691
   C       -5.21140         1.65045         0.09387
   C       -5.11926         2.43712         1.25858
   C       -5.83144         3.68383         1.39119
   N       -5.71857         4.39438         2.52649
   C       -4.99312         3.92417         3.50806
   C       -4.31825         2.66127         3.38898
   N       -4.39139         1.96222         2.28699
   C       -3.55227         2.16855         4.47632
   N       -2.95230         1.80151         5.38003
   C       -4.87035         4.68255         4.69953
   N       -4.76018         5.26505         5.67953
   C       -6.62747         4.20392         0.34600
   C       -6.60471         3.48143        -0.85997
   C       -5.91543         2.21602        -0.98299
   N       -6.01970         1.71107        -2.21353
   S       -6.93088         2.68283        -3.09740
   N       -7.22047         3.81164        -2.00281
   C       -7.45137         5.38698         0.50652
   C       -7.60349         6.27962        -0.56564
   C       -8.44059         7.35915        -0.43232
   C       -9.11928         7.58522         0.78034
   C       -8.96274         6.71528         1.85077
   C       -8.13462         5.62210         1.70693
   C       -9.88850         8.80292         0.65931
   C       -9.66484         9.34688        -0.61807
   C       -8.78048         8.43263        -1.44007
   C       -7.53221         9.14853        -1.97492
   C       -6.73312         9.82532        -0.86702
   C       -9.65671         7.87160        -2.58656
   C       -9.01701         6.78680        -3.44381
   C      -10.25822        10.52945        -0.98695
   C      -11.11789        11.17702        -0.08820
   C      -11.35994        10.60299         1.16713
   C      -10.74009         9.43385         1.55614
   C      -11.79329        12.40783        -0.43263
   C      -11.35424        13.30661        -1.33047
   C      -12.02979        14.53902        -1.64579
   C      -11.30385        15.70617        -1.93696
   C       -9.83693        15.90547        -1.97320
   O       -8.94977        15.10438        -1.81934
   N       -9.63517        17.26718        -2.23349
   C      -10.83473        17.95377        -2.40047
   O      -10.96759        19.12367        -2.64775
   C      -11.90394        16.93801        -2.20060
   C      -13.27649        17.10874        -2.23245
   C      -14.00818        15.95544        -1.99060
   C      -13.42741        14.71864        -1.70283
   C      -14.53860        13.74287        -1.59950
   O      -14.53291        12.56382        -1.42440
   O      -15.71629        14.43853        -1.78234
   C      -15.47899        15.76984        -2.01327
   O      -16.34546        16.56535        -2.19517
   C       -8.34332        17.79578        -2.26554
   C       -8.03888        19.08399        -2.46306
   C       -6.70522        19.61298        -2.44209
   C       -5.48833        18.90172        -2.21002
   C       -4.42911        19.80002        -2.24383
   C       -3.04537        19.61757        -2.06462
   C       -2.24173        20.72805        -2.14237
   C       -0.83100        20.89564        -2.00270
   C       -0.51901        22.23682        -2.16414
   C       -1.73342        22.94309        -2.41214
   C       -2.79290        22.04150        -2.40252
   C       -4.17284        22.22450        -2.58619
   C       -4.97949        21.11326        -2.50580
   C       -6.38943        20.95307        -2.62429
   C        0.80983        22.79441        -2.08653
   C        1.11997        24.08019        -2.22975
   H       -8.86983        -2.40938        -1.58310
   H       -4.51612        -4.87750        -1.33872
   H       -9.95618        -4.90436        -2.25269
   H       -3.64274         0.27818         0.54833
   H       -7.03456         6.11786        -1.46591
   H       -9.48469         6.88506         2.78005
   H       -8.03072         4.92077         2.51924
   H       -7.84134         9.89557        -2.70876
   H       -6.89518         8.42251        -2.48126
   H       -7.33187        10.58295        -0.36656
   H       -5.85008        10.30539        -1.28217
   H       -6.41237         9.09687        -0.12534
   H       -9.94156         8.71079        -3.22520
   H      -10.57199         7.47210        -2.14208
   H       -8.09957         7.13843        -3.90828
   H       -9.70805         6.50744        -4.23641
   H       -8.79937         5.89881        -2.85723
   H      -10.09336        10.94948        -1.96713
   H      -12.03581        11.10226         1.84589
   H      -10.92345         9.01236         2.53274
   H      -12.69432        12.61274         0.12830
   H      -10.38420        13.18556        -1.79159
   H      -13.74162        18.05806        -2.43935
   H       -7.59806        17.03301        -2.08987
   H       -8.82566        19.80236        -2.63761
   H       -5.40679        17.84490        -2.03383
   H       -2.64073        18.63437        -1.86896
   H       -0.13161        20.10421        -1.80271
   H       -1.81538        24.00154        -2.57874
   H       -4.57865        23.20772        -2.77918
   H       -7.09066        21.74395        -2.81777
   H        1.59446        22.07383        -1.89142
   H        0.37569        24.83373        -2.42200
   H        2.13662        24.42504        -2.15615
*
