# ORCA input file
# SCF done       -190.578266529578          0.001711622102
! CAM-B3LYP def2-SVP def2/J RIJCOSX Grid4 TightSCF
%maxcore 5000
%tddft
    Mode sTDDFT
    Ethresh 5.0
    maxcore 5000
end

%pal
  nprocs 6
  end
* xyz 0 1
   C       -3.30334         1.21225        -2.41322
   C       -3.28765         2.49079        -2.92156
   C       -2.17235         3.08326        -3.54326
   N       -1.29650         3.61293        -4.06480
   C       -4.37059         3.38348        -2.82438
   N       -5.21125         4.16221        -2.73007
   C       -2.16369         0.30153        -2.34503
   C       -2.54540        -0.85883        -1.62137
   C       -1.68024        -1.89702        -1.37940
   C       -0.37461        -1.78696        -1.87282
   C       -0.00249        -0.62535        -2.58812
   C       -0.87887         0.42648        -2.83405
   S        1.65529        -0.69392        -3.10060
   C        1.82458        -2.26246        -2.35735
   C        0.69785        -2.71311        -1.75674
  Br        3.47210        -3.15476        -2.44453
   C       -3.95372        -0.72196        -1.21804
   O       -4.63010        -1.51068        -0.56754
   C       -4.40891         0.55522        -1.76906
   C       -5.72345         0.95716        -1.69331
   N       -6.61268         0.24081        -0.99275
   C       -7.93805         0.46906        -0.80886
   S       -8.88303        -0.86578        -0.20174
   C      -10.32043         0.08841        -0.38085
   N      -11.55362        -0.48745        -0.08618
   O      -12.55224         0.19964        -0.25012
   O      -11.55885        -1.64961         0.28771
   C      -10.07517         1.35373        -0.84091
   C       -8.70833         1.61934        -1.07511
   C       -8.21782         2.90855        -1.44705
   C       -9.00546         3.89873        -1.95270
   C       -8.54941         5.18426        -2.27790
   C       -9.39891         6.17201        -2.71738
   C       -9.08475         7.50159        -3.08894
   C      -10.16116         8.25193        -3.46213
   C      -11.38701         7.55622        -3.40442
   S      -11.12786         5.91401        -2.85688
   C      -12.66642         7.98466        -3.69854
   C      -13.12858         9.25781        -4.10263
   C      -14.47752         9.33301        -4.27141
   C      -15.16438         8.11929        -4.01357
   S      -14.00053         6.86673        -3.56087
   C      -16.50661         7.87661        -4.04035
   N      -17.02704         6.66056        -3.75582
   C      -18.36229         6.33506        -3.66723
   C      -19.42876         7.03255        -4.16061
   S      -20.92127         6.22731        -3.87768
   C      -20.12877         4.93446        -3.07277
   C      -18.78012         5.11908        -3.01590
   N      -17.85425         4.29892        -2.39255
   C      -17.82465         2.95085        -2.39260
   C      -16.68140         2.28236        -2.08801
   C      -16.46961         0.91024        -2.31064
   C      -15.25493         0.35675        -2.61644
   C      -14.02052         0.95763        -3.05206
   C      -13.79747         2.23244        -3.53329
   C      -12.53596         2.68407        -3.97740
   N      -11.53232         3.12027        -4.32806
   C      -14.70961         3.28470        -3.70604
   N      -15.33536         4.23217        -3.90758
   C      -13.01021        -0.10058        -3.06824
   C      -13.61666        -1.33020        -2.70829
   C      -15.06345        -1.10855        -2.50917
   O      -15.91918        -1.93808        -2.29893
   C      -12.90842        -2.49786        -2.56831
   C      -11.53194        -2.46186        -2.82222
   C      -10.94823        -1.24655        -3.24473
   C      -11.66070        -0.06050        -3.36588
   S       -9.24187        -1.42135        -3.53716
   C       -9.32807        -3.09129        -3.03811
   C      -10.57275        -3.50554        -2.70499
  Br       -7.75475        -4.10981        -2.99513
   H       -1.99744        -2.76742        -0.82691
   H       -0.54934         1.29036        -3.38692
   H        0.62372        -3.65898        -1.25194
   H       -6.07689         1.82302        -2.22943
   H       -6.21263        -0.63279        -0.60828
   H      -10.86415         2.07044        -0.97472
   H       -7.17637         3.13389        -1.27560
   H      -10.05020         3.69970        -2.15362
   H       -7.49656         5.40922        -2.18461
   H       -8.06995         7.85808        -3.07232
   H      -10.10602         9.27830        -3.77948
   H      -12.45219        10.08099        -4.24790
   H      -15.00466        10.22187        -4.57020
   H      -17.19822         8.67863        -4.25044
   H      -16.36013         5.88723        -3.70434
   H      -19.43029         7.95818        -4.69819
   H      -20.70257         4.12643        -2.66751
   H      -16.97625         4.74688        -2.15610
   H      -18.70932         2.44369        -2.74932
   H      -15.82772         2.85806        -1.75733
   H      -17.30538         0.22284        -2.24634
   H      -13.39648        -3.40845        -2.25977
   H      -11.14802         0.83899        -3.66084
   H      -10.80693        -4.49961        -2.37152
*
