# ORCA input file
# SCF done       -173.295181010305          0.003717685082
! CAM-B3LYP def2-SVP def2/J RIJCOSX Grid4 TightSCF
%maxcore 5000
%tddft
    Mode sTDDFT
    Ethresh 5.0
    maxcore 5000
end

%pal
  nprocs 6
  end
* xyz 0 1
   C      -10.66252        -1.28374        -5.14417
   C      -11.36028        -2.16411        -4.35117
   C      -11.74524        -3.45739        -4.75088
   N      -12.10453        -4.51107        -5.03303
   C      -11.80483        -1.86368        -3.05090
   N      -12.17942        -1.66902        -1.98194
   C      -10.17002        -1.55349        -6.49160
   C       -9.53326        -0.38680        -6.99154
   C       -8.98865        -0.32023        -8.25058
   C       -9.07153        -1.46079        -9.05823
   C       -9.69338        -2.62349        -8.54689
   C      -10.24503        -2.69095        -7.27125
   S       -9.68411        -3.91595        -9.70896
   C       -8.86206        -2.88684       -10.85367
   C       -8.60281        -1.64181       -10.38857
  Br       -8.42407        -3.55486       -12.54904
   C       -9.59196         0.65662        -5.96115
   O       -9.14669         1.80196        -6.03197
   C      -10.29833         0.07166        -4.82227
   C      -10.56308         0.80762        -3.68676
   N      -10.16895         2.08305        -3.61935
   C      -10.42487         2.97847        -2.63738
   S      -11.30664         2.53989        -1.20324
   C      -11.21412         4.19146        -0.67893
   N      -11.78300         4.52635         0.55023
   O      -11.77587         5.70212         0.88103
   O      -12.25217         3.61590         1.21552
   C      -10.55261         5.01398        -1.55187
   C      -10.07100         4.33692        -2.68716
   C       -9.28594         4.91835        -3.74221
   C       -9.07182         6.24255        -3.88064
   C       -8.26355         6.84540        -4.90109
   C       -8.01744         6.26900        -6.16919
   C       -7.35698         7.09688        -7.02930
   S       -6.92409         6.69663        -8.67040
   C       -6.08173         8.21454        -9.19571
   S       -6.99718         8.63564        -6.30146
   C       -7.72960         8.13837        -4.79304
   C       -7.67295         8.99369        -3.67631
   C       -7.79141         8.54500        -2.38588
   C       -7.95443         9.32339        -1.23922
   C       -8.21033         8.74389        -0.01099
   C       -8.58265         9.36008         1.20154
   C       -8.93755         8.48513         2.19309
   C       -8.84169         7.13359         1.82074
   S       -8.24410         7.00002         0.18310
   C       -9.19566         5.98748         2.51346
   C       -9.83931         5.84923         3.75801
   C      -10.15727         4.55986         4.07068
   C       -9.78110         3.60208         3.09734
   S       -8.94457         4.42138         1.78597
   C      -10.07686         2.26292         3.12500
   C       -9.81220         1.28267         2.14761
   C      -10.26058        -0.04511         2.21816
   C       -9.87305        -0.72529         1.04244
   C      -10.07180        -2.02292         0.61532
   C       -9.57028        -2.37888        -0.64431
   C       -9.63701        -3.56660        -1.36164
   C       -9.00060        -3.38210        -2.62758
   C       -8.52839        -2.07989        -2.68395
   C       -8.86114        -1.41508        -1.46843
   C       -8.64492        -0.13061        -1.04179
   C       -9.14869         0.22981         0.22247
   C       -9.10946         1.43136         0.90631
   C       -8.87060        -4.35366        -3.68561
   C       -9.29438        -5.61428        -3.63625
   H       -8.51679         0.58219        -8.60741
   H      -10.70969        -3.59917        -6.92546
   H       -8.10442        -0.87988       -10.95978
   H      -11.09355         0.39988        -2.83678
   H       -9.67203         2.40429        -4.47265
   H      -10.41055         6.05847        -1.34716
   H       -8.80986         4.23549        -4.43159
   H       -9.54881         6.92990        -3.19738
   H       -8.34973         5.28896        -6.45853
   H       -5.76720         8.05071       -10.22153
   H       -5.21781         8.39023        -8.56052
   H       -6.77274         9.05141        -9.14263
   H       -7.50367        10.04622        -3.86340
   H       -7.77756         7.47439        -2.22622
   H       -7.96900        10.40184        -1.31320
   H       -8.60954        10.43107         1.30134
   H       -9.27564         8.78255         3.16977
   H      -10.08237         6.70079         4.36760
   H      -10.68225         4.26562         4.96233
   H      -10.62707         1.92350         3.99399
   H      -10.82364        -0.47079         3.02798
   H      -10.60527        -2.74274         1.21845
   H      -10.10657        -4.47370        -1.03084
   H       -8.00001        -1.63380        -3.50807
   H       -8.11670         0.59288        -1.64863
   H       -8.61877         2.32285         0.56292
   H       -8.38157        -3.98740        -4.58129
   H       -9.78652        -6.02018        -2.77058
   H       -9.17335        -6.28019        -4.47106
*
