# ORCA input file
# SCF done       -123.610603128222          0.000394249556
! CAM-B3LYP def2-SVP def2/J RIJCOSX Grid4 TightSCF
%maxcore 5000
%tddft
    Mode sTDDFT
    Ethresh 5.0
    maxcore 5000
end

%pal
  nprocs 6
  end
* xyz 0 1
   C       13.79853        -4.10612        -5.75266
   C       13.50360        -4.65653        -4.56773
   C       14.39060        -4.89573        -3.46443
   C       13.80494        -5.46653        -2.39001
   C       12.41343        -5.72729        -2.54797
   S       11.87825        -5.21389        -4.13626
   C       11.56133        -6.28890        -1.63030
   C       11.86309        -6.73916        -0.31952
   C       10.79585        -7.24148         0.35055
   C        9.57474        -7.22375        -0.37940
   S        9.85618        -6.53903        -1.97135
   C        8.36919        -7.66208         0.09138
   C        7.12801        -7.65685        -0.57760
   O        6.04556        -8.12024         0.12865
   C        4.98105        -8.01080        -0.68166
   C        3.61872        -8.28012        -0.57077
   C        2.96118        -7.95137        -1.73997
   S        4.02759        -7.31566        -2.98284
   C        5.37236        -7.48030        -1.92178
   C        6.74896        -7.25372        -1.85558
   C        1.56304        -8.05901        -1.96549
   S        0.83036        -7.57666        -3.50515
   C       -0.69178        -7.98180        -2.83975
   C       -0.56820        -8.44417        -1.54724
   N        0.71108        -8.47787        -1.09214
   C       -1.66788        -8.83792        -0.71365
   C       -1.50688        -9.33725         0.52785
   C       -2.58386        -9.68933         1.38906
   O       -3.87479        -9.45866         0.99476
   C       -4.66133        -9.85553         2.00799
   C       -6.03432        -9.86301         2.23917
   C       -6.32617       -10.37961         3.49206
   S       -4.86698       -10.86573         4.37257
   C       -3.87882       -10.35592         3.06082
   C       -2.54356       -10.24490         2.65878
   C       -7.55942       -10.55358         4.14806
   C       -8.80678       -10.18901         3.71925
   C      -10.00890       -10.38200         4.45437
   C      -11.12837        -9.91680         3.84444
   C      -10.89080        -9.32371         2.57859
   S       -9.17830        -9.39123         2.19896
   C      -11.80287        -8.75819         1.72280
   C      -13.20883        -8.63828         1.91070
   C      -13.85778        -8.02867         0.89491
   C      -13.01108        -7.61423        -0.18755
   S      -11.33696        -8.05643         0.18395
   C      -13.37064        -6.99074        -1.31750
   H       14.80002        -3.78185        -5.97372
   H       13.05344        -3.97346        -6.51535
   H       15.42983        -4.62587        -3.52912
   H       14.31957        -5.71358        -1.47829
   H       12.85698        -6.67610         0.08575
   H       10.83324        -7.62705         1.35420
   H        8.34209        -8.05406         1.09906
   H        3.11432        -8.67978         0.28726
   H        7.38416        -6.85559        -2.61773
   H       -1.58843        -7.86545        -3.41385
   H       -2.65804        -8.70624        -1.12491
   H       -0.51151        -9.47986         0.92025
   H       -6.77201        -9.51812         1.54149
   H       -1.66371       -10.52319         3.20051
   H       -7.50887       -11.02047         5.12359
   H       -9.99538       -10.85946         5.41855
   H      -12.11634        -9.97828         4.26430
   H      -13.68710        -9.01137         2.79911
   H      -14.91783        -7.84917         0.86040
   H      -14.40023        -6.73967        -1.50206
   H      -12.65103        -6.72208        -2.06880
*
