# ORCA input file
# SCF done       -160.119176069038          0.000518971613
! CAM-B3LYP def2-SVP def2/J RIJCOSX Grid4 TightSCF
%maxcore 5000
%tddft
    Mode sTDDFT
    Ethresh 5.0
    maxcore 5000
end

%pal
  nprocs 6
  end
* xyz 0 1
   C        1.38615        -3.33382        -0.69880
   C        2.15541        -3.78162         0.29341
   C        3.28823        -3.06741         0.81008
   C        4.06427        -3.52019         1.81524
   C        5.19122        -2.81292         2.33247
   C        5.95371        -3.28046         3.34147
   C        7.10544        -2.64559         3.93564
   C        7.74964        -3.29566         5.00168
   C        8.84590        -2.72150         5.59444
   C        9.33470        -1.48285         5.14272
   C        8.71005        -0.82923         4.08884
   C        7.60822        -1.41164         3.49813
   C       10.48371        -1.12232         5.94079
   C       10.70924        -2.13952         6.88748
   C        9.67977        -3.23633         6.74413
   C       10.33873        -4.58569         6.40352
   C       11.19791        -4.52314         5.14649
   C        8.83717        -3.38356         8.02510
   C        8.14590        -2.08752         8.43128
   C       11.74712        -2.05422         7.77903
   C       12.59615        -0.93326         7.75181
   C       12.35121         0.07580         6.80469
   C       11.31248        -0.00837         5.90254
   C       13.70104        -0.76623         8.65586
   C       14.11922        -1.66770         9.57489
   C       15.20633        -1.48828        10.47832
   C       15.53595        -2.53395        11.37806
   C       16.61212        -2.41683        12.33119
   N       16.86646        -3.42655        13.18760
   C       16.13491        -4.51171        13.12496
   C       15.08591        -4.64105        12.15791
   N       14.81157        -3.66232        11.32660
   C       14.32412        -5.83148        12.09085
   N       13.72273        -6.80693        12.05769
   C       16.39029        -5.56868        14.03273
   N       16.57040        -6.44102        14.75407
   C       17.43544        -1.27866        12.39438
   C       17.09609        -0.22548        11.52876
   C       15.99751        -0.32250        10.58766
   N       15.83858         0.81178         9.90390
   S       16.92400         1.88865        10.40016
   N       17.66610         0.98356        11.50056
   C       18.48998        -1.21654        13.38355
   C       19.71582        -0.70056        13.24097
   C       20.27210        -0.13892        11.97147
   C       20.61832        -0.59504        14.44753
   N       20.59994         0.76675        14.94553
   C       19.58993         1.23861        15.70212
   C       19.32094         2.55828        15.90174
   C       18.29017         2.99207        16.75415
   C       17.93860         4.29574        16.99243
   C       18.49658         5.49630        16.48710
   C       17.89041         6.62914        16.93193
   C       16.80902         6.39944        17.81832
   S       16.59633         4.68102        18.06951
   C       16.00196         7.33570        18.42462
   C       16.07199         8.74902        18.30133
   C       15.13877         9.41985        19.01488
   C       14.25029         8.58094        19.76479
   S       14.68926         6.88651        19.49808
   C       13.23438         8.95717        20.55511
   H        0.54181        -3.89243        -1.06346
   H        1.57899        -2.38751        -1.17717
   H        1.93775        -4.73574         0.75700
   H        3.51158        -2.11288         0.35014
   H        3.83519        -4.47573         2.27134
   H        5.41081        -1.86105         1.86898
   H        5.68771        -4.23913         3.77233
   H        7.37078        -4.24752         5.34688
   H        9.08028         0.12185         3.73524
   H        7.12445        -0.90294         2.67882
   H        9.55442        -5.33362         6.26939
   H       10.95540        -4.89756         7.24888
   H       10.59940        -4.23263         4.28565
   H       11.63920        -5.49682         4.94664
   H       12.00113        -3.79925         5.26570
   H        9.48847        -3.71652         8.83577
   H        8.08567        -4.15880         7.86132
   H        8.87708        -1.30446         8.62010
   H        7.56541        -2.24187         9.33794
   H        7.47415        -1.74723         7.64604
   H       11.90845        -2.83824         8.50223
   H       13.00391         0.93712         6.78937
   H       11.14545         0.77816         5.18157
   H       14.23656         0.17020         8.58030
   H       13.62768        -2.62471         9.67426
   H       18.23598        -1.70628        14.31540
   H       21.34758        -0.30429        11.92451
   H       20.07889         0.93126        11.90296
   H       19.80842        -0.60899        11.10881
   H       21.65070        -0.85056        14.19438
   H       20.27621        -1.25584        15.24663
   H       21.08423         1.44502        14.37330
   H       19.00042         0.48414        16.20460
   H       19.91542         3.29770        15.38435
   H       17.71524         2.22586        17.25692
   H       19.33146         5.49165        15.80935
   H       18.18710         7.62327        16.64885
   H       16.81588         9.22098        17.68389
   H       15.03760        10.49025        19.04373
   H       13.00064         9.99842        20.68962
   H       12.62634         8.23965        21.07445
*
