# ORCA input file
# SCF done       -212.683124413284          0.000484416566
! CAM-B3LYP def2-SVP def2/J RIJCOSX Grid4 TightSCF
%maxcore 5000
%tddft
    Mode sTDDFT
    Ethresh 5.0
    maxcore 5000
end

%pal
  nprocs 6
  end
* xyz 0 1
   C       -5.52898        -1.20305        -2.06358
   C       -4.68990        -1.49846        -1.02160
   C       -4.16647        -2.78297        -0.76643
   N       -3.72126        -3.80597        -0.49570
   C       -4.22172        -0.56893        -0.06968
   N       -3.79583         0.12565         0.73975
   C       -5.95892        -2.12912        -3.10198
   C       -6.72676        -1.41821        -4.05776
   C       -7.26647        -2.01917        -5.16912
   C       -7.03571        -3.38599        -5.34956
   C       -6.27095        -4.08881        -4.38814
   C       -5.72686        -3.48206        -3.26244
   S       -6.11853        -5.76523        -4.81114
   C       -7.05705        -5.51523        -6.24254
   C       -7.47003        -4.23917        -6.40305
   C       -6.82737        -0.00632        -3.65677
   O       -7.46799         0.86092        -4.21661
   C       -6.07817         0.10133        -2.38123
   C       -6.05512         1.20613        -1.58444
   C       -6.47007         2.51103        -1.95055
   S       -7.24926         3.48075        -0.71698
   C       -7.53993         4.78384        -1.83322
   C       -6.98381         4.49195        -3.06603
   C       -6.37589         3.22515        -3.13077
   C       -5.60283         2.92503        -4.37966
   C       -4.70645         1.80294        -4.28736
   N       -3.95258         0.94300        -4.25548
   C       -4.77715         4.18874        -4.70543
   C       -5.67821         5.38696        -5.01339
   C       -7.05143         5.31485        -4.32101
   O       -7.93082         4.71924        -5.26641
   C       -9.27034         4.63987        -4.85433
   C       -8.28851         5.93426        -1.45333
   C       -8.76208         6.14544        -0.20847
   C       -9.57775         7.24750         0.23317
   C       -9.86278         7.35428         1.60515
   C      -10.66118         8.37179         2.06765
   C      -11.24188         9.27375         1.15739
   C      -10.96271         9.18726        -0.20067
   C      -10.12736         8.18791        -0.64993
   C      -12.11345        10.16593         1.88238
   C      -12.06563         9.83136         3.24852
   C      -11.12138         8.66788         3.48169
   C      -11.83890         7.41276         4.02105
   C      -12.43578         7.52418         5.41797
   C       -9.97167         9.16802         4.38200
   C       -8.86768         8.16147         4.67793
   C      -12.78011        10.57148         4.15750
   C      -13.62079        11.61109         3.71835
   C      -13.66991        11.91237         2.34812
   C      -12.91335        11.21087         1.43562
   C      -14.39597        12.30960         4.70799
   C      -15.40192        13.18068         4.45697
   C      -16.21705        13.85432         5.41325
   C      -16.07282        13.82976         6.82181
   C      -16.99367        14.51704         7.69711
   N      -16.81965        14.46893         9.02013
   C      -15.80905        13.79366         9.52464
   C      -14.89593        13.11481         8.66232
   N      -15.04603        13.15157         7.36071
   C      -13.80527        12.38393         9.19599
   N      -12.93256        11.78960         9.64115
   C      -15.63658        13.75342        10.92780
   N      -15.46871        13.69792        12.06061
   C      -18.11676        15.26099         7.21089
   C      -18.23188        15.30917         5.80001
   C      -17.30220        14.62788         4.93406
   N      -17.60314        14.81069         3.64755
   S      -18.90888        15.73911         3.53146
   N      -19.16283        15.95510         5.10829
   C      -18.98142        15.85001         8.14246
   C      -20.14602        16.57376         7.99893
   C      -20.87414        17.05048         9.12136
   C      -22.01614        17.72350         8.81704
   C      -22.25077        17.81655         7.42700
   S      -20.96762        17.02877         6.52629
   C      -23.31404        18.42337         6.79053
   C      -24.41505        19.09189         7.39315
   C      -25.31344        19.59048         6.51376
   C      -24.98616        19.35196         5.13791
   S      -23.46243        18.45166         5.05014
   C      -25.68012        19.72387         4.05266
   H       -7.84542        -1.44982        -5.87980
   H       -5.15425        -4.06136        -2.55751
   H       -7.24437        -6.35343        -6.88523
   H       -8.06235        -3.89771        -7.23271
   H       -5.76194         1.09381        -0.54768
   H       -6.31867         2.72676        -5.18955
   H       -4.12267         3.98917        -5.55490
   H       -4.14401         4.40716        -3.84128
   H       -5.88539         5.43288        -6.08330
   H       -5.16986         6.30605        -4.72218
   H       -7.40989         6.33226        -4.09660
   H       -9.82275         4.23515        -5.69957
   H       -9.66665         5.63134        -4.60013
   H       -9.39427         3.97610        -3.99180
   H       -8.47392         6.65089        -2.24025
   H       -8.51896         5.41209         0.55212
   H       -9.45094         6.61615         2.27693
   H      -11.40376         9.88565        -0.89617
   H       -9.91878         8.11407        -1.70603
   H      -11.12614         6.58664         4.00632
   H      -12.63688         7.16326         3.31580
   H      -11.68875         7.82182         6.14855
   H      -12.83032         6.55484         5.71637
   H      -13.25456         8.23733         5.43840
   H      -10.40467         9.50942         5.32339
   H       -9.53021        10.04150         3.89392
   H       -9.26347         7.26114         5.14002
   H       -8.15347         8.60656         5.36755
   H       -8.33297         7.88990         3.77202
   H      -12.71881        10.37163         5.21651
   H      -14.29502        12.72142         2.00396
   H      -12.94214        11.46831         0.38719
   H      -14.15943        12.07731         5.73594
   H      -15.68812        13.39766         3.43643
   H      -18.67549        15.68715         9.16989
   H      -20.52453        16.87234        10.12323
   H      -22.68258        18.14554         9.54765
   H      -24.50055        19.17805         8.46168
   H      -26.20735        20.12500         6.78151
   H      -26.60229        20.26898         4.15078
   H      -25.34339        19.49138         3.05912
*
