# ORCA input file
# SCF done       -186.071213131462          0.000835332988
! CAM-B3LYP def2-SVP def2/J RIJCOSX Grid4 TightSCF
%maxcore 5000
%tddft
    Mode sTDDFT
    Ethresh 5.0
    maxcore 5000
end

%pal
  nprocs 6
  end
* xyz 0 1
   C       -8.76510        -0.46013         4.15218
   C       -8.39314        -1.62374         3.51647
   C       -8.70284        -2.91272         3.98809
   N       -8.93217        -3.98885         4.31942
   C       -7.63158        -1.68975         2.33396
   N       -6.99093        -1.82846         1.38956
   C       -9.44657        -0.38533         5.44275
   C       -9.57877         0.97805         5.79757
   C      -10.16496         1.38618         6.96891
   C      -10.64086         0.39723         7.83876
   C      -10.50785        -0.96123         7.47436
   C       -9.91646        -1.37343         6.28474
   S      -11.16825        -2.01620         8.68871
   C      -11.60346        -0.63331         9.65718
   C      -11.27400         0.55660         9.10218
  Br      -12.45226        -0.89051        11.31152
   C       -8.99704         1.81705         4.72631
   O       -9.02606         3.03731         4.68683
   C       -8.47840         0.88324         3.72422
   C       -7.98415         1.23317         2.47564
   C       -7.44170         2.44640         2.07066
   S       -7.43880         2.80587         0.35696
   C       -6.73815         4.37079         0.58328
   C       -6.45027         4.59135         1.94482
   C       -6.81792         3.49874         2.78097
   C       -6.47162         3.51629         4.13420
   C       -5.90324         4.64290         4.68646
   S       -5.63519         4.78523         6.41806
   C       -6.94785         3.73978         7.13690
   C       -6.46883         2.35130         7.51929
   C       -5.54182         5.73274         3.85624
   S       -4.77530         7.18769         4.52321
   C       -3.18218         6.51726         5.15774
   C       -2.88493         7.04679         6.54513
   C       -5.80494         5.70211         2.51115
   C       -6.49726         5.25302        -0.49385
   C       -6.67453         4.91617        -1.79602
   C       -6.42589         5.72893        -2.94682
   C       -6.43633         7.07059        -3.06158
   C       -6.85506         8.03027        -1.99608
   C       -6.12376         7.70009        -4.39758
   N       -7.33857         8.13823        -5.04707
   C       -7.76064         9.41819        -5.07976
   C       -9.02070         9.80091        -5.42747
   C       -9.40840        11.14115        -5.57819
   C      -10.66281        11.55097        -5.95778
   C      -11.10329        12.87492        -6.17935
   C      -12.40253        12.97517        -6.58415
   C      -13.06610        11.73646        -6.69258
   S      -11.98586        10.43024        -6.26873
   C      -14.37802        11.50062        -7.07250
   C      -15.34197        12.43205        -7.49908
   C      -16.54658        11.87070        -7.81624
   C      -16.60038        10.47116        -7.64564
   S      -15.05363         9.88309        -7.07580
   C      -17.70084         9.67112        -7.88543
   C      -17.81596         8.29986        -7.69355
   S      -16.52980         7.31759        -7.05429
   C      -17.48001         5.86675        -7.10670
   C      -18.75971         6.12955        -7.61384
   C      -18.95834         7.49927        -7.94893
   C      -20.18611         7.90575        -8.47626
   C      -21.20860         6.99949        -8.67392
   C      -22.47828         7.43966        -9.24484
   C      -23.01288         8.64257        -9.07460
   C      -21.01252         5.62933        -8.33546
   C      -22.12174         4.63900        -8.52599
   C      -19.81416         5.21850        -7.81596
   C      -16.95395         4.61715        -6.66822
   C      -15.72321         4.43255        -6.18060
   H      -10.25475         2.43362         7.21237
   H       -9.84216        -2.42213         6.05066
   H      -11.47045         1.50830         9.56148
   H       -8.07178         0.48897         1.69224
   H       -6.64275         2.64041         4.73270
   H       -7.76591         3.71794         6.41723
   H       -7.26579         4.28659         8.02542
   H       -6.10502         1.79880         6.65517
   H       -7.29101         1.78996         7.96105
   H       -5.66046         2.41451         8.24484
   H       -2.41685         6.82463         4.44438
   H       -3.26720         5.43290         5.15572
   H       -2.83515         8.13295         6.53451
   H       -1.93086         6.65518         6.89213
   H       -3.66405         6.73959         7.23780
   H       -5.50706         6.53947         1.90073
   H       -6.10201         6.22126        -0.22973
   H       -6.97518         3.89658        -2.00829
   H       -6.21047         5.15967        -3.84448
   H       -7.54030         7.56338        -1.29287
   H       -7.34791         8.89298        -2.44439
   H       -5.98840         8.39637        -1.44415
   H       -5.61727         6.98111        -5.04965
   H       -5.47476         8.56952        -4.26628
   H       -8.04185         7.42473        -5.18054
   H       -7.00285        10.16179        -4.86962
   H       -9.76568         9.04150        -5.62543
   H       -8.66860        11.91132        -5.40190
   H      -10.44447        13.71419        -6.03990
   H      -12.89807        13.90446        -6.80102
   H      -15.12874        13.48357        -7.57043
   H      -17.40031        12.42537        -8.16459
   H      -18.57926        10.18025        -8.25998
   H      -20.33215         8.93700        -8.75818
   H      -23.00761         6.70980        -9.84246
   H      -22.55047         9.39552        -8.45841
   H      -23.94951         8.91306        -9.53137
   H      -22.33694         4.50151        -9.58593
   H      -21.84614         3.67376        -8.10831
   H      -23.03268         4.98225        -8.03798
   H      -19.67175         4.18002        -7.55601
   H      -17.62942         3.77561        -6.74812
   H      -15.02824         5.25056        -6.08819
   H      -15.38188         3.46360        -5.86356
*
