# ORCA input file
# SCF done       -225.556476566395          0.000908645627
! CAM-B3LYP def2-SVP def2/J RIJCOSX Grid4 TightSCF
%maxcore 5000
%tddft
    Mode sTDDFT
    Ethresh 5.0
    maxcore 5000
end

%pal
  nprocs 6
  end
* xyz 0 1
   C       -3.62717        -1.82364        -1.49111
   C       -2.29707        -1.96217        -1.19622
   C       -1.59313        -3.18185        -1.27834
   N       -0.97336        -4.14624        -1.33633
   C       -1.46875        -0.92041        -0.72543
   N       -0.74282        -0.13505        -0.30859
   C       -4.54109        -2.89545        -1.86125
   C       -5.85576        -2.37098        -1.92481
   C       -6.94511        -3.14351        -2.24765
   C       -6.72860        -4.49909        -2.51485
   C       -5.41100        -5.01358        -2.45179
   C       -4.30872        -4.23199        -2.12951
   S       -5.36885        -6.70948        -2.82601
   C       -7.09718        -6.70550        -3.05715
   C       -7.67829        -5.49740        -2.86460
  Br       -7.97151        -8.29569        -3.52880
   C       -5.82985        -0.92550        -1.62920
   O       -6.76988        -0.16361        -1.69654
   C       -4.39963        -0.59958        -1.37975
   C       -3.90504         0.66227        -1.27837
   C       -4.68865         1.82185        -0.98860
   C       -4.39339         3.06102        -1.59047
   C       -5.21625         4.22396        -1.37283
   N       -4.87159         5.38983        -1.94292
   C       -3.83705         5.43792        -2.74326
   C       -3.06601         4.25919        -3.01928
   N       -3.34694         3.12346        -2.43509
   C       -1.97769         4.32936        -3.92588
   N       -1.11804         4.43160        -4.67558
   C       -3.49556         6.68179        -3.33059
   N       -3.21881         7.67615        -3.82721
   C       -6.36014         4.19212        -0.53861
   C       -6.57391         2.98834         0.15638
   C       -5.75209         1.81856        -0.06756
   N       -6.11461         0.80070         0.71373
   S       -7.38194         1.24029         1.58515
   N       -7.52986         2.74373         1.06047
   C       -7.22230         5.34871        -0.41167
   C       -7.42924         6.19727        -1.51112
   C       -8.15735         7.34651        -1.34804
   C       -8.71409         7.67531        -0.09741
   C       -8.55909         6.81323         0.98301
   C       -7.82319         5.65953         0.81827
   C       -9.37802         8.95075        -0.21499
   C       -9.22648         9.41323        -1.53786
   C       -8.46025         8.41396        -2.36969
   C       -7.16626         9.01801        -2.94816
   C       -6.21945         9.53973        -1.87486
   C       -9.32834         7.86456        -3.51848
   C      -10.63547         7.24772        -3.03523
   C       -9.74679        10.62238        -1.91462
   C      -10.44159        11.41391        -0.97765
   C      -10.59042        10.93235         0.33576
   C      -10.06758         9.71712         0.71946
   C      -10.94722        12.67454        -1.42735
   C      -11.64532        13.59971        -0.71134
   C      -12.10316        14.84471        -1.18844
   C      -11.94287        15.42895        -2.42453
   C      -12.43658        16.71017        -2.78274
   C      -12.14410        17.10080        -4.05546
   C      -11.40248        16.14648        -4.78335
   S      -11.09379        14.74242        -3.79779
   C      -10.93174        16.20923        -6.08462
   C      -11.04633        17.25792        -7.01882
   C      -10.44417        16.99288        -8.21573
   C       -9.82877        15.72327        -8.28471
   S      -10.04742        14.86867        -6.77822
   C       -9.15001        15.18159        -9.36086
   C       -8.57218        13.91777        -9.32137
   C       -7.88020        13.23721       -10.29905
   C       -7.69514        13.45922       -11.70641
   C       -8.53802        14.12610       -12.56587
   C       -8.30134        14.26901       -13.94679
   N       -8.14932        14.44016       -15.07266
   C       -9.79564        14.64892       -12.20883
   N      -10.84915        15.05572       -11.99761
   C       -6.54316        12.65846       -12.12539
   C       -6.16347        11.81324       -11.05301
   C       -7.02688        12.09802        -9.88887
   O       -7.02283        11.54500        -8.80973
   C       -5.13192        10.91267       -11.15008
   C       -4.43264        10.84996       -12.36074
   C       -4.80983        11.70725       -13.42022
   C       -5.86010        12.61370       -13.32439
   S       -3.80737        11.47220       -14.82002
   C       -2.90948        10.23920       -13.97441
   C       -3.33573        10.01448       -12.70939
  Br       -1.49558         9.36528       -14.84409
   H       -7.93433        -2.71541        -2.29169
   H       -3.32340        -4.66664        -2.10272
   H       -8.73264        -5.31583        -2.96622
   H       -2.85562         0.84922        -1.46822
   H       -7.02915         5.93632        -2.47726
   H       -8.99257         7.04968         1.94306
   H       -7.67098         4.99370         1.65237
   H       -7.43233         9.83089        -3.62615
   H       -6.65302         8.25248        -3.53256
   H       -6.69536        10.31854        -1.28216
   H       -5.32856         9.95286        -2.34067
   H       -5.91316         8.73587        -1.20920
   H       -8.75111         7.11262        -4.05967
   H       -9.54492         8.67985        -4.21122
   H      -10.44392         6.41929        -2.35647
   H      -11.20537         6.87291        -3.88211
   H      -11.24166         7.98538        -2.51370
   H       -9.63014        10.98408        -2.92593
   H      -11.12189        11.52813         1.06147
   H      -10.18867         9.36614         1.73339
   H      -10.72876        12.88756        -2.46351
   H      -11.88470        13.39172         0.32254
   H      -12.65707        15.44673        -0.47791
   H      -12.99339        17.30727        -2.08193
   H      -12.44054        18.04085        -4.48442
   H      -11.55898        18.17456        -6.78826
   H      -10.42915        17.66695        -9.05336
   H       -9.06254        15.79894       -10.24178
   H       -8.58583        13.40663        -8.36168
   H       -4.86988        10.27707       -10.31888
   H       -6.10589        13.24915       -14.15888
   H       -2.89669         9.29097       -12.04691
*
