# ORCA input file
# SCF done       -208.432285446449          0.000899905316
! CAM-B3LYP def2-SVP def2/J RIJCOSX Grid4 TightSCF
%maxcore 5000
%tddft
    Mode sTDDFT
    Ethresh 5.0
    maxcore 5000
end

%pal
  nprocs 6
  end
* xyz 0 1
   C       -9.44377        -4.48311        -3.05933
   C      -10.70756        -4.38895        -2.53077
   C      -11.37644        -5.44424        -1.88037
   N      -11.96860        -6.27118        -1.34741
   C      -11.49167        -3.22046        -2.57841
   N      -12.15524        -2.28267        -2.59472
   C       -8.59207        -5.67047        -3.03365
   C       -7.36238        -5.36743        -3.67437
   C       -6.35275        -6.28812        -3.81302
   C       -6.56412        -7.57105        -3.29607
   C       -7.79234        -7.86407        -2.65865
   C       -8.81434        -6.93162        -2.51742
   S       -7.84433        -9.50675        -2.09624
   C       -6.23721        -9.77438        -2.71685
   C       -5.68786        -8.69033        -3.31455
  Br       -5.43632       -11.45911        -2.51962
   C       -7.40020        -3.97150        -4.12763
   O       -6.51820        -3.35940        -4.73329
   C       -8.70460        -3.44842        -3.73757
   C       -9.09052        -2.16078        -4.05148
   N       -8.24506        -1.35503        -4.68422
   C       -8.45990        -0.07438        -5.14660
   C       -9.57778         0.68541        -4.94263
   S       -9.45774         2.21582        -5.69496
   C       -7.89665         1.84816        -6.31256
   C       -7.46624         0.60454        -5.94279
   N       -6.27827        -0.01445        -6.27902
   C       -5.09587         0.54418        -6.67822
   C       -4.76010         1.85542        -6.68683
   C       -3.51606         2.32184        -7.16308
   C       -3.19861         3.64473        -7.29453
   C       -1.99746         4.19684        -7.80840
   C       -1.99853         5.55242        -7.90725
   C       -3.19980         6.16266        -7.47199
   S       -4.32078         4.94633        -6.89783
   C       -3.53019         7.49878        -7.51104
   C       -2.76724         8.56767        -8.03730
   C       -3.40346         9.76628        -8.00833
   C       -4.71143         9.73688        -7.44347
   S       -5.07355         8.09344        -6.92743
   C       -5.55353        10.80937        -7.39475
   C       -6.87061        10.91418        -6.84845
   C       -7.39891         9.98881        -5.93063
   C       -8.66435        10.17088        -5.43583
   C       -9.45323        11.25844        -5.85428
   C       -8.94232        12.18746        -6.75508
   C       -7.66114        12.01786        -7.22551
   C      -10.72899        11.18149        -5.19158
   C      -10.72961        10.05936        -4.33636
   C       -9.38892         9.36232        -4.38067
   C       -9.50466         7.87871        -4.75809
   C      -10.15306         7.67472        -6.12245
   C       -8.60459         9.55334        -3.05923
   C       -9.25814         8.99311        -1.80278
   C      -11.84727         9.74200        -3.60973
   C      -12.98774        10.56486        -3.68598
   C      -12.96816        11.67490        -4.54980
   C      -11.85805        11.98588        -5.30122
   C      -14.15039        10.35171        -2.87924
   C      -14.28439         9.45286        -1.86823
   C      -15.43690         9.40810        -1.05918
   C      -15.62136         8.71172         0.10360
   C      -14.70709         7.98747         0.95370
   C      -13.35949         8.20620         1.10887
   C      -12.54160         7.47576         1.99441
   N      -11.81779         6.90065         2.67639
   C      -12.62677         9.24571         0.50194
   N      -11.96774        10.09219         0.09098
   C      -15.50954         7.11602         1.81079
   C      -16.87663         7.45268         1.64885
   C      -16.99579         8.50714         0.61983
   O      -18.00534         9.06227         0.24484
   C      -17.87788         6.83885         2.36003
   C      -17.51520         5.83586         3.26593
   C      -16.14992         5.49504         3.40747
   C      -15.13517         6.12231         2.69438
   S      -15.92584         4.22271         4.57020
   C      -17.64608         4.17096         4.84974
   C      -18.35365         5.05750         4.11086
  Br      -18.34508         2.95089         6.09176
   H       -5.42792        -6.02999        -4.30480
   H       -9.73252        -7.20399        -2.02447
   H       -4.70587        -8.67956        -3.75110
   H      -10.07219        -1.78139        -3.80970
   H       -7.32978        -1.79557        -4.85958
   H      -10.45783         0.43547        -4.38598
   H       -7.41339         2.56459        -6.94186
   H       -6.27298        -1.02250        -6.21248
   H       -4.37139        -0.18863        -7.00812
   H       -5.44498         2.60256        -6.31917
   H       -2.77899         1.59486        -7.47745
   H       -1.17597         3.56572        -8.09938
   H       -1.17555         6.13255        -8.28463
   H       -1.78079         8.41587        -8.43773
   H       -2.98375        10.68517        -8.37876
   H       -5.17590        11.70841        -7.86818
   H       -6.79677         9.16008        -5.59450
   H       -9.53610        13.03234        -7.07094
   H       -7.24701        12.73706        -7.91792
   H      -10.09618         7.36158        -4.00155
   H       -8.50533         7.43881        -4.76374
   H      -11.15202         8.10583        -6.14138
   H      -10.23115         6.61279        -6.34480
   H       -9.56047         8.14707        -6.90265
   H       -8.44248        10.62500        -2.91780
   H       -7.62568         9.08666        -3.19213
   H      -10.16616         9.53551        -1.55327
   H       -8.57102         9.09973        -0.96614
   H       -9.48968         7.93636        -1.91047
   H      -11.86119         8.86577        -2.98306
   H      -13.84864        12.29845        -4.61299
   H      -11.86200        12.83992        -5.96187
   H      -14.97186        11.03823        -3.04965
   H      -13.48817         8.75760        -1.65311
   H      -16.31250         9.94495        -1.41053
   H      -18.90959         7.12250         2.22320
   H      -14.10933         5.82451         2.83424
   H      -19.42239         5.16042         4.15782
*
