# ORCA input file
# SCF done       -159.562814249094          0.000461056744
! CAM-B3LYP def2-SVP def2/J RIJCOSX Grid4 TightSCF
%maxcore 5000
%tddft
    Mode sTDDFT
    Ethresh 5.0
    maxcore 5000
end

%pal
  nprocs 6
  end
* xyz 0 1
   C       -6.95230         0.74160        -2.73632
   S       -6.47965        -0.36049        -1.49335
   C       -4.90917        -0.44999        -2.15841
   C       -4.77169         0.34690        -3.29457
   C       -5.95269         1.02953        -3.62122
   C       -3.38899         0.22262        -3.82478
   O       -2.89957         0.75024        -4.79164
   C       -2.74723        -0.72912        -2.87459
   C       -3.67328        -1.11453        -1.89348
   S       -3.01771        -2.19995        -0.76122
   C       -1.48193        -2.18237        -1.61885
   C       -1.50828        -1.33062        -2.71534
   C       -0.45252        -2.97275        -1.05711
   N       -0.61508        -3.41901         0.18295
   C        0.51158        -4.08668         0.49016
   C        1.45613        -4.07922        -0.63217
   C        2.67608        -4.81954        -0.27825
   O        3.66890        -5.01155        -0.95171
   C        2.39790        -5.26545         1.09783
   C        1.06850        -4.79600         1.52994
   N        0.79850        -5.21221         2.78985
   C        1.85523        -5.89948         3.15634
   C        2.88885        -5.97684         2.14699
   C        0.84006        -3.39068        -1.65369
   C        1.25193        -3.18104        -2.99537
   C        2.47747        -3.53913        -3.46115
   C        2.93056        -3.37394        -4.79136
   N        2.18466        -2.80644        -5.80494
   C        2.92925        -2.80952        -6.94059
   C        2.92465        -2.45374        -8.27776
   C        4.18375        -2.83097        -8.78606
   N        4.92826        -3.40229        -7.77127
   C        4.19015        -3.40072        -6.63453
   C        4.18738        -3.74997        -5.29096
   C        4.70380        -2.69632       -10.08592
   C        4.04932        -2.12888       -11.14147
   C        4.64351        -2.02528       -12.41492
   N        5.86934        -2.49209       -12.66464
   C        6.11161        -2.22024       -13.95318
   C        4.97673        -1.52874       -14.58568
   C        5.27245        -1.24210       -15.99681
   O        4.57253        -0.68024       -16.81723
   C        6.62247        -1.80045       -16.16597
   C        7.10021        -2.38486       -14.90171
   N        8.34124        -2.90230       -15.05028
   C        8.65556        -2.67938       -16.30827
   C        7.63068        -1.99787       -17.05982
   C        4.02010        -1.39953       -13.60882
   C        2.72559        -0.81593       -13.64690
   C        2.21042        -0.22537       -14.75369
   C        0.92622         0.37256       -14.82246
   S        0.44047         1.15392       -16.31853
   C       -1.06046         1.58119       -15.63510
   C       -1.18953         1.13965       -14.31529
   C       -0.06817         0.45875       -13.85716
   C       -2.52265         1.54653       -13.78500
   O       -2.98532         1.33483       -12.69086
   C       -3.13780         2.26918       -14.92693
   C       -2.25502         2.27280       -16.00373
   S       -2.89254         3.09184       -17.35992
   C       -4.34567         3.43161       -16.48265
   C       -4.33941         2.93845       -15.21144
   H       -7.95684         1.11608        -2.73649
   H       -6.06223         1.69388        -4.45833
   H       -0.65955        -1.11659        -3.33706
   H        1.89975        -6.34507         4.13492
   H        3.82323        -6.49285         2.24766
   H        0.52264        -2.74738        -3.66359
   H        3.18634        -3.99170        -2.78107
   H        1.24789        -2.45588        -5.71101
   H        2.13750        -1.98801        -8.83439
   H        5.86520        -3.75038        -7.88441
   H        4.96142        -4.21482        -4.71503
   H        5.70357        -3.06569       -10.27243
   H        3.05145        -1.73945       -11.01141
   H        9.60904        -2.99850       -16.69246
   H        7.69007        -1.72475       -18.09499
   H        2.14209        -0.85040       -12.73797
   H        2.80668        -0.19138       -15.65653
   H        0.02146         0.04340       -12.87075
   H       -5.12253         3.98340       -16.97334
   H       -5.15281         3.05097       -14.51851
*
