# ORCA input file
# SCF done       -193.230980461334          0.000469579985
! CAM-B3LYP def2-SVP def2/J RIJCOSX Grid4 TightSCF
%maxcore 5000
%tddft
    Mode sTDDFT
    Ethresh 5.0
    maxcore 5000
end

%pal
  nprocs 6
  end
* xyz 0 1
   C       -2.44897         3.12338         8.68709
   N       -2.76150         4.40273         9.04132
   C       -3.69125         4.92176         8.19305
   C       -3.99221         3.95255         7.26400
   C       -3.19714         2.81764         7.59109
   S       -3.55767         1.56832         6.39204
   O       -4.29077         0.46610         6.96344
   O       -2.40472         1.21898         5.60368
   C       -4.73126         2.62150         5.49633
   C       -4.84777         3.80921         6.11512
   C       -5.37827         1.93846         4.43336
   C       -6.64683         2.11592         4.00516
   C       -7.29630         1.24049         3.08331
   N       -8.28810         1.67303         2.32085
   C       -8.63167         0.63063         1.53567
   C       -7.80334        -0.54534         1.81584
   C       -8.20753        -1.67178         0.96284
   O       -7.72512        -2.78410         0.89199
   C       -9.33848        -1.11028         0.19962
   C       -9.55581         0.29904         0.56852
   N      -10.61244         0.81443        -0.10410
   C      -11.06199        -0.17430        -0.84278
   C      -10.32107        -1.40634        -0.69290
   C       -6.96790        -0.18830         2.84993
   C       -6.05878        -0.97189         3.61870
   C       -5.58605        -2.17426         3.21358
   C       -4.63543        -2.98459         3.92612
   C       -3.89208        -2.51116         4.99512
   C       -2.96510        -3.35106         5.62938
   C       -2.10267        -3.10565         6.70005
   C       -1.92229        -1.80476         7.39362
   C       -2.52301        -1.82022         8.81097
   N       -3.95704        -2.02570         8.72818
   C       -0.45494        -1.34322         7.42468
   N       -0.40421         0.07971         7.73842
   C       -1.41868        -4.34469         6.97149
   C       -0.56558        -4.69672         7.95234
   C        0.02959        -6.06403         8.01369
   C       -0.43835        -7.00109         6.95124
   C       -1.33088        -6.64759         6.00478
   C       -1.86160        -5.33875         5.97935
   C       -2.80407        -4.72173         5.17373
   C       -3.56013        -5.17735         4.07168
   C       -4.43447        -4.32833         3.46930
   C        1.51789        -5.83453         7.98451
   C        2.27601        -6.07325         6.90572
   C        3.68157        -5.82641         6.88387
   N        4.33715        -5.25242         7.88587
   C        5.62407        -5.19120         7.49562
   C        5.80847        -5.77453         6.15786
   C        7.21811        -5.70830         5.75264
   O        7.72551        -6.10119         4.71935
   C        7.85443        -5.05249         6.90645
   C        6.85101        -4.75279         7.94544
   N        7.42944        -4.15014         9.00993
   C        8.70475        -4.06100         8.70184
   C        9.03798        -4.60379         7.40729
   C        4.56319        -6.18594         5.75326
   C        4.12357        -6.83852         4.57098
   C        4.92601        -7.20664         3.54893
   C        4.36734        -7.88109         2.42424
   N        5.07857        -8.29109         1.32346
   C        4.26727        -8.90911         0.42520
   C        2.98876        -8.90793         0.94624
   C        3.05861        -8.26084         2.20088
   S        1.42971        -8.25230         2.90246
   O        0.89935        -6.91836         3.03047
   O        1.35234        -9.06917         4.08801
   C        0.71955        -9.11275         1.46937
   C        1.68033        -9.36902         0.56522
   C       -0.68580        -9.38868         1.49583
   C       -1.37593       -10.02666         0.55196
   H       -1.73068         2.53489         9.22083
   H       -2.35604         4.89711         9.82032
   H       -4.06497         5.91891         8.30969
   H       -5.48761         4.61009         5.78035
   H       -4.77387         1.14643         4.01005
   H       -7.23371         2.95472         4.35375
   H      -11.90975        -0.02646        -1.48920
   H      -10.53279        -2.32826        -1.19796
   H       -5.77591        -0.57864         4.58545
   H       -5.94268        -2.57617         2.27363
   H       -4.01000        -1.49924         5.34914
   H       -2.47519        -1.04834         6.83205
   H       -2.23668        -0.86820         9.28729
   H       -2.09892        -2.64306         9.39515
   H       -4.36458        -1.29098         8.15633
   H       -4.37498        -1.96770         9.65057
   H        0.00526        -1.58575         6.45316
   H        0.10348        -1.87084         8.20270
   H       -0.91689         0.59004         7.02293
   H        0.55965         0.39770         7.70351
   H       -0.25001        -4.00269         8.71692
   H       -0.20949        -6.50095         8.99592
   H       -0.00865        -7.99088         6.96545
   H       -1.64279        -7.35851         5.25516
   H       -3.43172        -6.18888         3.71648
   H       -5.01998        -4.65883         2.62377
   H        1.97510        -5.42473         8.87405
   H        1.82689        -6.47741         6.00972
   H        9.39824        -3.61289         9.39236
   H       10.01810        -4.62815         6.97309
   H        3.06936        -7.06379         4.49404
   H        5.98840        -7.00500         3.56695
   H        6.06989        -8.14511         1.21119
   H        4.64457        -9.29802        -0.49948
   H        1.51554        -9.87302        -0.37407
   H       -1.18089        -9.02539         2.38684
   H       -0.90657       -10.39917        -0.34239
   H       -2.43391       -10.19507         0.64692
*
