# ORCA input file
# SCF done       -200.497217900488          0.000557908315
! CAM-B3LYP def2-SVP def2/J RIJCOSX Grid4 TightSCF
%maxcore 5000
%tddft
    Mode sTDDFT
    Ethresh 5.0
    maxcore 5000
end

%pal
  nprocs 6
  end
* xyz 0 1
   C        5.71622         6.29923        -1.48456
   N        6.49794         5.82834        -2.47778
   C        7.28938         6.58589        -3.40744
   C        8.59699         7.06049        -2.77685
   N        6.51397         4.49977        -2.49725
   C        5.72513         4.09968        -1.51075
   C        5.18664         5.21106        -0.82278
   C        4.24418         5.20573         0.33694
   C        4.39627         6.43970         1.22087
   C        5.47986         2.65219        -1.24855
   C        6.71781         1.79690        -1.54515
   C        6.57860         0.43151        -0.98603
   C        6.91100        -0.69250        -1.64100
   C        6.78079        -2.02415        -1.14244
   N        6.69309        -3.03619        -1.99099
   C        6.46425        -4.13294        -1.24507
   C        6.39588        -3.79567         0.19094
   C        6.15097        -5.00466         0.99160
   O        5.98934        -5.10103         2.19057
   C        6.13002        -6.06675        -0.02997
   C        6.31091        -5.49001        -1.37761
   N        6.31917        -6.46748        -2.31795
   C        6.17166        -7.58562        -1.65033
   C        6.05921        -7.41036        -0.21851
   C        6.66105        -2.45605         0.27658
   C        6.86094        -1.62956         1.42560
   C        6.38006        -1.93413         2.64547
   C        6.49654        -1.08081         3.80827
   C        5.52139        -1.18708         4.79489
   C        5.53410        -0.30540         5.87363
   C        4.63076        -0.13811         6.96419
   C        3.42969        -0.93100         7.37109
   C        2.49645        -1.43984         6.25699
   N        3.01165        -2.55144         5.48038
   C        3.85168        -2.05725         8.34651
   N        4.67703        -3.06158         7.70313
   C        5.09255         0.95214         7.73323
   C        4.62202         1.49511         8.90964
   C        5.20900         2.68379         9.42701
   C        6.49876         3.19016         8.83146
   C        7.08306         2.41363         7.75178
   C        6.34799         1.45159         7.15179
   C        6.59016         0.64964         5.98609
   C        7.59133         0.71100         5.02878
   C        7.53249        -0.13760         3.94411
   C        5.20958         3.90323         8.41640
   C        4.83616         5.20002         8.82831
   C        4.14701         6.07327         8.00848
   N        3.94510         7.36047         8.38331
   C        3.44439         7.97710         7.32434
   C        3.30309         7.05828         6.17661
   C        2.73319         7.75707         5.00939
   O        2.49367         7.29882         3.90916
   C        2.54052         9.11676         5.51904
   C        2.98136         9.22189         6.91760
   N        2.78589        10.46728         7.39214
   C        2.24903        11.13732         6.38678
   C        2.06363        10.35743         5.19778
   C        3.70046         5.83504         6.61020
   C        3.68613         4.58296         5.88088
   C        4.33925         4.41293         4.72451
   C        4.35792         3.21356         3.92967
   N        5.39575         2.93060         3.09317
   C        6.64582         3.64867         3.02329
   C        7.50941         3.16542         1.87069
   N        5.20306         1.79381         2.43272
   C        4.01820         1.32795         2.81013
   C        3.43670         2.17749         3.76777
   C        2.09095         2.03982         4.39917
   C        1.14125         3.14673         3.93840
   C        3.47969         0.05205         2.25615
   C        2.25708         0.25783         1.34593
   C        2.60231         1.05163         0.12889
   C        2.05719         2.21090        -0.18606
   H        5.59012         7.35105        -1.32706
   H        6.70483         7.44368        -3.75348
   H        7.49824         5.92935        -4.25469
   H        8.39677         7.70402        -1.92322
   H        9.18024         7.61741        -3.50483
   H        9.17902         6.20640        -2.43986
   H        4.40435         4.30061         0.92783
   H        3.21592         5.16012        -0.03478
   H        5.42471         6.54056         1.56611
   H        3.73783         6.37785         2.08393
   H        4.13590         7.33970         0.66973
   H        4.65640         2.30799        -1.88013
   H        5.17265         2.51838        -0.20886
   H        7.58154         2.26987        -1.06530
   H        6.91485         1.77871        -2.61658
   H        6.15038         0.39295         0.00748
   H        7.24274        -0.63780        -2.67003
   H        6.13986        -8.52766        -2.17010
   H        5.94288        -8.19785         0.49987
   H        7.41375        -0.71469         1.26764
   H        5.79272        -2.83315         2.77429
   H        4.72917        -1.91812         4.71591
   H        2.80572        -0.25266         7.96718
   H        2.29998        -0.61029         5.56920
   H        1.54279        -1.68950         6.75487
   H        2.26751        -2.97347         4.93702
   H        3.40793        -3.25096         6.10329
   H        2.94814        -2.55631         8.71240
   H        4.34676        -1.57999         9.21079
   H        5.51647        -2.64228         7.31776
   H        4.95096        -3.77739         8.36621
   H        3.78453         1.06345         9.43784
   H        4.97325         2.96759        10.44307
   H        7.16608         3.74892         9.47292
   H        8.07306         2.67296         7.40908
   H        8.40045         1.42028         5.12750
   H        8.31073        -0.09698         3.19722
   H        4.88539         3.61998         7.42382
   H        5.13878         5.57058         9.79741
   H        1.99625        12.17666         6.50640
   H        1.64185        10.70658         4.27560
   H        3.09880         3.78403         6.31446
   H        4.93393         5.23813         4.35505
   H        7.17609         3.51351         3.97553
   H        6.43281         4.71496         2.90033
   H        7.60822         2.08495         1.91272
   H        8.49364         3.62276         1.93574
   H        7.05616         3.44180         0.92414
   H        2.18222         2.06344         5.48945
   H        1.67087         1.06859         4.13093
   H        1.53846         4.12698         4.18877
   H        0.16723         3.03357         4.40989
   H        1.01222         3.10258         2.85977
   H        3.20234        -0.60672         3.08285
   H        4.27379        -0.43550         1.68874
   H        1.45824         0.75723         1.89444
   H        1.89640        -0.72818         1.03724
   H        3.35635         0.60736        -0.50847
   H        1.30414         2.67050         0.43342
   H        2.33104         2.75358        -1.07448
*
