# ORCA input file
# SCF done       -204.553825353902          0.000633568777
! CAM-B3LYP def2-SVP def2/J RIJCOSX Grid4 TightSCF
%maxcore 5000
%tddft
    Mode sTDDFT
    Ethresh 5.0
    maxcore 5000
end

%pal
  nprocs 6
  end
* xyz 0 1
   C       -4.92720        -2.12268         1.01186
   C       -3.82176        -2.69267         0.44883
   C       -3.46301        -4.05040         0.60224
   N       -3.12358        -5.14272         0.68857
   C       -2.88082        -2.00464        -0.34917
   N       -2.07102        -1.50567        -0.99058
   C       -5.90169        -2.77914         1.86852
   C       -6.88953        -1.83789         2.26703
   C       -7.93830        -2.17077         3.09332
   C       -8.01921        -3.48849         3.54900
   C       -7.02961        -4.42136         3.14701
   C       -5.97029        -4.08759         2.31279
   S       -7.32860        -5.98644         3.83012
   C       -8.74294        -5.39510         4.63031
   C       -8.98845        -4.08606         4.40233
   C       -6.59220        -0.53318         1.67272
   O       -7.21862         0.49978         1.77527
   C       -5.33495        -0.72654         0.88701
   C       -4.74465         0.27386         0.21603
   C       -5.26028         1.64061         0.22462
   C       -5.24724         2.45823         1.36010
   C       -4.72626         2.02626         2.67559
   O       -4.17176         1.00306         2.94536
   S       -5.04253         3.31868         3.87008
   C       -5.83099         4.40132         2.66512
   O       -6.34352         5.43383         2.96026
   C       -5.76901         3.74757         1.33876
   C       -6.25947         4.32721         0.16666
   C       -6.25078         3.52795        -0.97655
   C       -5.79269         2.21366        -0.93239
   C       -5.96091         1.45179        -2.18415
   O       -5.69425         0.29969        -2.36191
   S       -6.66079         2.53462        -3.42201
   C       -6.67710         3.96564        -2.32767
   O       -6.93305         5.06399        -2.70983
   C       -6.80492         5.69861         0.12432
   N       -6.00263         6.70391         0.44840
   C       -6.52968         7.91481         0.38214
   C       -7.82245         8.14160        -0.06524
   C       -8.56368         7.01620        -0.43504
   N       -8.04903         5.79541        -0.29457
   C       -9.87121         7.10163        -1.06086
   C      -10.53759         5.98480        -1.37917
   C      -11.74535         5.92586        -2.17063
   C      -11.85327         5.00042        -3.22642
   C      -10.82326         3.98221        -3.52355
   O       -9.80811         3.74622        -2.94270
   S      -11.33177         3.03976        -4.96902
   C      -12.85322         3.95385        -5.16194
   O      -13.63904         3.72432        -6.03467
   C      -12.94841         4.96963        -4.09040
   C      -14.02996         5.84779        -3.93958
   C      -13.95268         6.71500        -2.84040
   C      -12.86259         6.75922        -1.98224
   C      -13.05668         7.66598        -0.82517
   O      -12.32263         7.88666         0.08686
   S      -14.67683         8.44211        -0.95553
   C      -15.09153         7.57411        -2.45798
   O      -16.13817         7.67687        -3.02418
   C      -15.16352         5.92625        -4.84511
   C      -16.02764         4.97582        -5.23211
   C      -16.19301         3.57491        -4.86623
   C      -15.84034         2.99168        -3.68104
   C      -16.05263         1.62877        -3.37558
   N      -16.18501         0.53025        -3.07341
   C      -15.27433         3.67875        -2.59017
   N      -14.83095         4.18664        -1.66043
   C      -16.93675         2.94263        -5.94241
   C      -17.41182         3.94210        -6.83428
   C      -16.93304         5.25926        -6.39687
   O      -17.14907         6.34231        -6.87963
   C      -18.17808         3.64316        -7.93603
   C      -18.48505         2.30074        -8.17451
   C      -17.99174         1.30901        -7.28880
   C      -17.22085         1.60867        -6.17336
   S      -18.48323        -0.27769        -7.78692
   C      -19.33070         0.38269        -9.14108
   C      -19.25267         1.72938        -9.22693
   H       -8.67163        -1.43237         3.37836
   H       -5.24271        -4.83244         2.03634
   H       -9.31324        -6.07531         5.23266
   H       -9.82194        -3.54825         4.81627
   H       -3.86170         0.10959        -0.38730
   H       -5.87561         8.72553         0.67420
   H       -8.23128         9.13560        -0.14099
   H      -10.22458         8.08892        -1.31892
   H      -10.06988         5.04237        -1.12647
   H      -15.32871         6.90402        -5.29196
   H      -18.52915         4.42366        -8.59298
   H      -16.85869         0.82013        -5.53464
   H      -19.84327        -0.28874        -9.80234
   H      -19.71661         2.31134       -10.00241
*
