# ORCA input file
# SCF done       -201.885587820425          0.000701179013
! CAM-B3LYP def2-SVP def2/J RIJCOSX Grid4 TightSCF
%maxcore 5000
%tddft
    Mode sTDDFT
    Ethresh 5.0
    maxcore 5000
end

%pal
  nprocs 6
  end
* xyz 0 1
   C       16.28719        -0.83560        -2.94588
   C       17.07010        -0.39351        -3.97638
   F       18.38016        -0.18291        -3.76837
   C       16.55768        -0.14614        -5.25818
   C       15.22659        -0.35222        -5.48946
   C       14.37254        -0.80493        -4.46194
   C       14.91339        -1.05406        -3.16545
   C       14.07863        -1.51539        -2.12089
   C       12.74677        -1.71683        -2.36458
   C       12.20826        -1.44573        -3.65762
   C       12.99406        -1.00766        -4.68660
   C       10.75809        -1.68534        -3.64538
   O        9.97025        -1.61195        -4.55661
   C       10.42784        -1.97338        -2.20946
   C       11.67347        -2.20291        -1.50128
   C       11.83419        -2.93094        -0.35736
   C       13.09255        -3.19727         0.22465
   N       14.09527        -3.43178         0.72968
   C       10.78272        -3.60364         0.30406
   N        9.99281        -4.25345         0.82417
   C        9.14687        -1.82688        -1.79104
   C        8.68259        -1.67557        -0.45513
   N        9.49726        -1.41492         0.55341
   C        8.70876        -1.26390         1.63805
   C        7.28859        -1.42386         1.29163
   C        6.44622        -1.30218         2.49784
   O        5.24577        -1.39481         2.59206
   C        7.44452        -1.05357         3.55960
   C        8.81167        -1.03080         2.98450
   N        9.73427        -0.80406         3.95238
   C        9.04753        -0.69737         5.06055
   C        7.60983        -0.84759         4.88779
   C        7.25337        -1.68827        -0.05310
   C        6.16071        -1.92834        -0.93151
   C        4.87101        -1.65524        -0.61967
   C        3.81896        -1.87728        -1.55039
   O        4.04562        -2.56069        -2.67921
   C        2.90274        -2.58845        -3.39938
   C        1.90121        -1.92792        -2.70358
   C        2.47586        -1.46925        -1.50743
   C        1.84493        -0.67847        -0.43347
   O        2.50003        -0.05742         0.36897
   C        0.33899        -0.69283        -0.43277
   C        2.90129        -3.31646        -4.62393
   N        3.77820        -4.28889        -4.81358
   C        3.49102        -4.81568        -6.01821
   C        2.38389        -4.09507        -6.66701
   C        2.08775        -4.69246        -7.98311
   O        1.27712        -4.33402        -8.81279
   C        3.02869        -5.81912        -8.04702
   C        3.88043        -5.84849        -6.83632
   N        4.75089        -6.88324        -6.89115
   C        4.49232        -7.49026        -8.02439
   C        3.42648        -6.88024        -8.79469
   C        1.99139        -3.12114        -5.77880
   C        1.02221        -2.09088        -5.93311
   C        0.29039        -1.96562        -7.06690
   C       -0.66874        -0.94758        -7.29313
   C       -1.51695        -0.91284        -8.35502
   C       -2.17658         0.35623        -8.77292
   O       -2.31581         1.35429        -8.10481
   C       -2.54659         0.14125       -10.18480
   C       -3.04961         1.03687       -11.08474
   C       -3.28719         0.62019       -12.41322
   C       -2.99457        -0.72440       -12.78708
   C       -3.22141        -1.12842       -14.11714
   C       -3.71698        -0.22671       -15.01734
   C       -4.01318         1.09847       -14.66889
   C       -3.79904         1.50770       -13.38238
   F       -3.93255        -0.60988       -16.28825
   C       -2.48444        -1.63439       -11.83207
   C       -2.26853        -1.20941       -10.54932
   C       -1.77997        -1.91670        -9.36921
   C       -1.77938        -3.27230        -9.18679
   C       -1.58509        -3.89750        -7.93472
   N       -1.51368        -4.43861        -6.92549
   C       -2.09819        -4.19623       -10.20454
   N       -2.35129        -4.97972       -11.00350
   H       16.71702        -1.01853        -1.97356
   H       17.22420         0.20123        -6.03155
   H       14.80853        -0.16882        -6.46770
   H       14.51115        -1.68684        -1.14804
   H       12.56619        -0.81473        -5.65899
   H        8.41006        -1.72108        -2.58010
   H        9.54868        -0.51080         5.99462
   H        6.88050        -0.79495         5.67149
   H        6.38783        -2.32743        -1.91138
   H        4.59163        -1.22171         0.33084
   H        0.87856        -1.82664        -3.00323
   H       -0.03038        -1.71493        -0.46846
   H       -0.03058        -0.16165        -1.30802
   H       -0.02824        -0.19791         0.46194
   H        5.05453        -8.36113        -8.31371
   H        3.06416        -7.22541        -9.74263
   H        0.88258        -1.39542        -5.11852
   H        0.46538        -2.66660        -7.87059
   H       -0.68338        -0.08892        -6.63066
   H       -3.25858         2.05383       -10.78805
   H       -3.00736        -2.14148       -14.41984
   H       -4.40216         1.76480       -15.42238
   H       -4.01906         2.52349       -13.09026
   H       -2.26277        -2.64362       -12.14120
*
