# ORCA input file
# SCF done       -222.450101335566          0.000951652002
! CAM-B3LYP def2-SVP def2/J RIJCOSX Grid4 TightSCF
%maxcore 5000
%tddft
    Mode sTDDFT
    Ethresh 5.0
    maxcore 5000
end

%pal
  nprocs 6
  end
* xyz 0 1
   C        3.29313         4.27672        -6.80758
   C        2.40118         5.19992        -7.27820
   F        2.01845         5.15400        -8.56530
   C        1.86039         6.20575        -6.46430
   C        2.23669         6.26932        -5.15162
   C        3.15318         5.34236        -4.61325
   C        3.69027         4.32512        -5.45667
   C        4.60178         3.37774        -4.93844
   C        4.96139         3.44110        -3.61727
   C        4.43426         4.47154        -2.78448
   C        3.55309         5.40044        -3.26039
   C        5.00552         4.35493        -1.43413
   O        4.77749         5.02484        -0.45872
   C        6.00953         3.24532        -1.53383
   C        5.83493         2.58898        -2.82193
   C        6.28096         1.34840        -3.18176
   C        6.96198         0.44697        -2.33895
   N        7.49571        -0.36103        -1.72135
   C        6.06500         0.77071        -4.45345
   N        5.94352         0.25242        -5.46947
   C        6.95451         3.13022        -0.58466
   C        8.15328         2.31695        -0.61416
   C        9.11848         2.38221        -1.63463
   C        9.08669         3.36901        -2.73688
   O        8.21796         4.14635        -3.00799
   S       10.59466         3.23849        -3.67773
   C       11.24801         1.91988        -2.62789
   O       12.38047         1.55624        -2.71149
   C       10.21136         1.52885        -1.65467
   C       10.38235         0.46891        -0.71785
   C        9.56570         0.59212         0.44124
   C        8.47561         1.46256         0.44736
   C        7.58781         1.34395         1.61897
   O        6.53629         1.88256         1.79267
   S        8.32025         0.20513         2.78207
   C        9.71732        -0.12413         1.71584
   O       10.63542        -0.79940         2.10163
   C       11.20975        -0.63382        -1.07014
   N       11.78643        -1.52311        -0.19270
   C       12.40111        -2.49139        -0.90487
   C       13.14496        -3.66203        -0.80205
   C       13.37905        -4.08798        -2.11677
   N       12.79862        -3.20731        -3.00201
   C       12.19614        -2.22191        -2.29014
   C       11.45213        -1.06106        -2.39421
   C       14.08393        -5.25629        -2.50839
   C       14.37141        -5.59224        -3.78596
   C       15.10083        -6.75774        -4.19830
   C       14.93592        -8.04945        -3.64891
   C       13.84525        -8.41726        -2.72490
   O       12.94797        -7.75341        -2.30609
   S       13.98326       -10.17186        -2.31623
   C       15.39518       -10.41101        -3.37435
   O       15.95656       -11.46269        -3.48173
   C       15.70597        -9.13796        -4.06185
   C       16.67592        -9.03031        -5.06683
   C       16.79933        -7.76276        -5.64942
   C       16.04025        -6.67383        -5.25097
   C       16.31515        -5.44820        -6.02631
   O       15.84058        -4.35940        -5.89329
   S       17.54353        -5.81066        -7.28984
   C       17.68571        -7.52229        -6.80487
   O       18.38242        -8.32107        -7.35594
   C       17.52005       -10.12565        -5.51480
   C       17.16322       -11.31670        -6.02096
   C       18.20586       -12.38994        -6.14424
   O       19.39855       -12.23325        -6.07568
   C       17.44769       -13.64101        -6.29073
   C       17.91657       -14.92365        -6.32892
   C       16.99922       -15.99032        -6.44748
   C       15.60269       -15.70624        -6.50864
   C       14.69133       -16.77481        -6.62114
   C       15.16389       -18.05669        -6.67334
   C       16.53278       -18.35616        -6.61594
   C       17.43104       -17.33182        -6.50407
   F       14.29750       -19.07738        -6.78439
   C       15.14489       -14.37022        -6.46366
   C       16.05426       -13.34893        -6.36811
   C       15.86867       -11.90446        -6.33900
   C       14.72351       -11.24352        -6.68321
   C       14.60276        -9.84764        -6.82797
   N       14.43137        -8.72329        -6.98642
   C       13.50582       -11.88691        -7.00263
   N       12.48896       -12.34576        -7.26830
   H        3.68682         3.51482        -7.46204
   H        1.16075         6.90638        -6.89178
   H        1.83403         7.03502        -4.50599
   H        5.00114         2.62886        -5.60359
   H        3.16516         6.17002        -2.61008
   H        6.79915         3.73303         0.30561
   H       11.72250        -1.44353         0.81544
   H       13.47690        -4.16469         0.08342
   H       12.84108        -3.28077        -4.00362
   H       11.07330        -0.60275        -3.28427
   H       14.42726        -5.87460        -1.69189
   H       14.13679        -4.90361        -4.58445
   H       18.59048        -9.96537        -5.41352
   H       18.97653       -15.12044        -6.27049
   H       13.63124       -16.58098        -6.67042
   H       16.84592       -19.38718        -6.66101
   H       18.48960       -17.53814        -6.45783
   H       14.08267       -14.18793        -6.49676
*
