# ORCA input file
# SCF done       -198.839880492401          0.000638592357
! CAM-B3LYP def2-SVP def2/J RIJCOSX Grid4 TightSCF
%maxcore 5000
%tddft
    Mode sTDDFT
    Ethresh 5.0
    maxcore 5000
end

%pal
  nprocs 6
  end
* xyz 0 1
   C       -6.44200        -6.43283         1.23725
   C       -6.63511        -5.08622         1.07673
   C       -7.89328        -4.45934         1.16670
   N       -8.88713        -3.89166         1.25716
   C       -5.59777        -4.17314         0.80104
   N       -4.79882        -3.39148         0.53826
   C       -5.14892        -7.09480         1.38878
   C       -5.34369        -8.33478         2.02794
   C       -4.27203        -9.15580         2.32476
   C       -3.00066        -8.73400         1.96941
   C       -2.79277        -7.51837         1.32058
   C       -3.87692        -6.69077         1.03018
   C       -1.41724        -7.09853         0.91080
   C       -6.78046        -8.55356         2.25898
   O       -7.32418        -9.46525         2.83645
   C       -7.45618        -7.41729         1.55719
   C       -8.76466        -7.52075         1.21880
   C       -9.48892        -6.76745         0.25697
   C      -10.94281        -6.57634         0.27808
   N      -11.40327        -5.85801        -0.70431
   C      -10.32118        -5.52714        -1.45754
   C       -9.09208        -6.10520        -0.88593
   C       -7.97673        -5.82876        -1.75610
   S       -6.48834        -6.53988        -1.70303
   C       -8.50690        -4.94142        -2.75737
   C       -9.96403        -4.81887        -2.57721
   N      -10.50609        -4.04182        -3.55616
   C       -9.50728        -3.69207        -4.31455
   C       -8.20465        -4.20255        -3.88189
   C       -6.94562        -3.89904        -4.50149
   C       -6.88904        -3.58590        -5.84947
   C       -5.65270        -3.33857        -6.46546
   C       -5.29939        -3.05576        -7.79045
   C       -6.12574        -2.77211        -8.98724
   C       -7.48876        -3.47223        -9.05312
   N       -8.02403        -3.32721       -10.39548
   C       -6.33818        -1.23158        -9.09036
   N       -5.12653        -0.57631        -9.52917
   C       -3.86219        -2.90234        -7.81026
   C       -3.02150        -2.64630        -8.83114
   C       -1.55614        -2.52857        -8.61316
   C       -1.12136        -2.67351        -7.18615
   C       -1.97716        -2.95061        -6.18473
   C       -3.35904        -3.08898        -6.45071
   C       -4.44938        -3.37417        -5.64512
   C       -4.53962        -3.66031        -4.26736
   C       -5.75367        -3.92372        -3.71644
   C       -0.95948        -1.26980        -9.19309
   C       -1.65877        -0.28958        -9.76808
   C       -1.06064         0.87593       -10.35334
   C        0.24864         1.45770       -10.06018
   N        0.53785         2.51999       -10.76143
   C       -0.53311         2.72333       -11.57539
   C       -1.56853         1.70100       -11.32790
   C       -2.67302         1.88964       -12.23234
   S       -4.03993         0.98883       -12.38953
   C       -2.30271         3.04767       -13.00199
   C       -0.97976         3.54089       -12.58445
   N       -0.62584         4.62744       -13.32134
   C       -1.59420         4.81662       -14.17197
   C       -2.69233         3.84799       -14.05225
   C       -3.89664         3.76298       -14.80434
   C       -4.01556         4.01600       -16.13304
   C       -5.22983         3.99271       -16.93064
   C       -6.51263         3.96542       -16.45584
   C       -6.86847         3.96587       -15.08918
   N       -7.23382         3.98481       -14.00130
   C       -7.66099         3.96230       -17.27657
   N       -8.63102         3.95683       -17.89010
   C       -4.83263         4.07249       -18.33337
   C       -3.43239         4.19264       -18.40765
   C       -2.85476         4.17297       -17.05579
   O       -1.68104         4.21061       -16.75704
   C       -2.78583         4.29515       -19.62558
   C       -3.55091         4.27966       -20.77975
   C       -4.93933         4.15642       -20.72841
   C       -5.58346         4.05087       -19.49672
   C       -5.73670         4.11255       -21.99208
   H       -4.43365       -10.10035         2.82093
   H       -2.15023        -9.36106         2.19447
   H       -3.71297        -5.75697         0.51614
   H       -0.65791        -7.63668         1.47211
   H       -1.28181        -6.02956         1.05922
   H       -1.27129        -7.30800        -0.14931
   H       -9.31178        -8.32376         1.70442
   H      -11.60079        -6.96359         1.03605
   H       -9.67337        -3.04625        -5.15931
   H       -7.79746        -3.57873        -6.42765
   H       -5.56236        -3.06564        -9.87927
   H       -8.19231        -2.97903        -8.37899
   H       -7.37238        -4.52183        -8.73523
   H       -7.47280        -3.85539       -11.06327
   H       -8.97845        -3.66314       -10.44324
   H       -6.61673        -0.85141        -8.10470
   H       -7.18022        -1.08684        -9.77919
   H       -5.05409        -0.58600       -10.54188
   H       -5.09785         0.38898        -9.22591
   H       -3.37079        -2.54578        -9.84688
   H       -1.09177        -3.36014        -9.17613
   H       -0.06587        -2.54865        -6.99736
   H       -1.62211        -3.06072        -5.17076
   H       -3.64647        -3.66781        -3.66160
   H       -5.83806        -4.13588        -2.66309
   H        0.11822        -1.21080        -9.12341
   H       -2.73474        -0.35861        -9.85499
   H        0.94272         1.09144        -9.32429
   H       -1.57488         5.65667       -14.84065
   H       -4.75791         3.40517       -14.25140
   H       -1.71125         4.38812       -19.66095
   H       -3.06745         4.36355       -21.74203
   H       -6.65668         3.95046       -19.46860
   H       -5.29020         4.74449       -22.75613
   H       -6.76131         4.43052       -21.81760
   H       -5.76118         3.09157       -22.37484
*
