# ORCA input file
# SCF done       -236.115808770368          0.000891973114
! CAM-B3LYP def2-SVP def2/J RIJCOSX Grid4 TightSCF
%maxcore 5000
%tddft
    Mode sTDDFT
    Ethresh 5.0
    maxcore 5000
end

%pal
  nprocs 6
  end
* xyz 0 1
   C       -1.17745        -6.35576        -3.12041
   F       -0.42703        -6.73285        -4.17347
   C       -2.17041        -7.20595        -2.63470
   C       -2.42602        -8.60115        -3.17381
   O       -2.83277        -9.47680        -2.47351
   O       -2.18317        -8.79559        -4.46937
   C       -2.91443        -6.75204        -1.54171
   F       -3.90036        -7.49067        -1.05040
   C       -2.67111        -5.50634        -0.96875
   F       -3.43810        -5.10271         0.03886
   C       -1.67304        -4.66179        -1.45931
   C       -0.92819        -5.11668        -2.54858
   F        0.06481        -4.36871        -3.04179
   C       -1.40790        -3.37015        -0.83189
   N       -1.23599        -3.27839         0.46383
   C       -0.98219        -1.96478         0.70510
   C       -0.99257        -1.19174        -0.53812
   C       -0.76917         0.22822        -0.25598
   O       -0.73146         1.15939        -1.03973
   C       -0.61579         0.25756         1.20929
   C       -0.74958        -1.11533         1.75604
   N       -0.62965        -1.10408         3.10621
   C       -0.44247         0.15173         3.42275
   C       -0.43171         1.06163         2.28550
   C       -1.28292        -2.08758        -1.54560
   C       -1.50078        -1.89740        -2.93852
   C       -1.14999        -0.76130        -3.58332
   C       -1.38282        -0.45113        -4.96625
   C       -0.76675         0.66064        -5.50952
   C       -1.02364         1.03903        -6.83820
   C       -0.56640         2.12181        -7.58741
   C        0.36406         3.17770        -7.10668
   C        1.77171         2.99543        -7.71098
   N        2.36725         1.78595        -7.17940
   C       -0.13918         4.61151        -7.35678
   N        0.54993         5.51724        -6.45811
   C       -1.19369         2.02272        -8.88551
   C       -1.12542         2.79934        -9.98543
   C       -2.00444         2.55478       -11.15749
   C       -2.72179         1.23804       -11.14516
   C       -2.76393         0.45779       -10.04659
   C       -2.04937         0.82374        -8.88497
   C       -1.93421         0.23596        -7.63913
   C       -2.53208        -0.91178        -7.07112
   C       -2.26355        -1.23688        -5.78106
   C       -3.17957         3.50470       -11.15147
   C       -3.58008         4.19475       -10.07220
   C       -4.75311         5.00766       -10.06606
   N       -5.47949         5.20906       -11.15561
   C       -6.42418         6.10598       -10.81223
   C       -6.27167         6.52276        -9.40846
   C       -7.29414         7.51733        -9.04281
   O       -7.45141         8.07994        -7.98218
   C       -8.06344         7.65236       -10.29492
   C       -7.49764         6.77677       -11.34490
   N       -8.20901         6.88695       -12.49334
   C       -9.15962         7.74926       -12.22547
   C       -9.13107         8.26196       -10.87093
   C       -5.23077         5.79511        -8.90271
   C       -4.69448         5.83222        -7.57461
   C       -4.12693         4.79117        -6.93803
   C       -3.48176         4.82515        -5.64472
   C       -2.80016         3.67372        -5.21409
   C       -2.04433         3.65451        -4.06302
   C       -1.97862         4.80899        -3.28946
   C       -2.72484         5.93544        -3.66711
   C       -3.45670         5.96502        -4.83288
   S       -2.54435         7.20087        -2.47070
   C       -1.49434         6.17050        -1.51328
   C       -1.01234         6.60125        -0.30021
   C       -0.45739         5.80010         0.70065
   C        0.15650         6.24370         1.85035
   C        0.69010         7.53331         2.19147
   C        1.15354         8.48269         1.31054
   C        1.68490         9.72731         1.69716
   N        2.10567        10.76492         1.95307
   C        1.25864         8.25208        -0.07412
   N        1.41008         8.06037        -1.19698
   C        0.88130         7.55444         3.64328
   C        0.66166         6.25694         4.14248
   C        0.25348         5.37122         3.03186
   O        0.01467         4.17857         3.08210
   C        0.81517         5.96561         5.48267
   C        1.18426         6.99363         6.34063
   C        1.39019         8.27614         5.85617
   C        1.24676         8.57276         4.50577
   N       -1.25506         4.98801        -2.13727
   C       -0.14758         4.11731        -1.82193
   H       -1.76179        -8.05687        -4.92879
   H       -0.30958         0.44229         4.44996
   H       -0.29791         2.12353         2.35918
   H       -1.95963        -2.72039        -3.46968
   H       -0.64059         0.00326        -3.01174
   H       -0.07005         1.23126        -4.91387
   H        0.48060         3.05873        -6.02598
   H        2.38036         3.84482        -7.39449
   H        1.69534         3.00574        -8.81150
   H        1.88405         0.96410        -7.52679
   H        3.34341         1.71631        -7.43983
   H       -1.23624         4.63472        -7.24165
   H        0.10186         4.92336        -8.37539
   H        0.26260         5.35698        -5.49900
   H        0.34411         6.48243        -6.68654
   H       -0.49038         3.67131       -10.03667
   H       -1.44602         2.68905       -12.09103
   H       -3.26254         0.97840       -12.04105
   H       -3.32292        -0.46644       -10.04956
   H       -3.20479        -1.51131        -7.66632
   H       -2.73842        -2.10002        -5.34189
   H       -3.76911         3.55161       -12.05515
   H       -2.99685         4.17547        -9.16397
   H       -9.87369         8.02216       -12.98309
   H       -9.82146         8.97025       -10.45751
   H       -4.81233         6.78432        -7.07487
   H       -4.11651         3.82059        -7.41855
   H       -2.85852         2.77821        -5.81470
   H       -1.53971         2.75627        -3.74898
   H       -4.00170         6.85440        -5.10092
   H       -1.15410         7.65238        -0.09221
   H       -0.63197         4.73188         0.66470
   H        0.65022         4.96155         5.84267
   H        1.31040         6.79370         7.39416
   H        1.66945         9.06436         6.53924
   H        1.40948         9.57852         4.15269
   H       -0.47351         3.22301        -1.28869
   H        0.57963         4.66251        -1.22370
   H        0.32947         3.80818        -2.75338
*
