# ORCA input file
# SCF done       -157.483127405966          0.000721454825
! CAM-B3LYP def2-SVP def2/J RIJCOSX Grid4 TightSCF
%maxcore 5000
%tddft
    Mode sTDDFT
    Ethresh 5.0
    maxcore 5000
end

%pal
  nprocs 6
  end
* xyz 0 1
   C       -0.79587         4.00592         3.28961
   S       -0.14808         5.54313         2.87385
   C        0.80269         4.83988         1.61930
   C        1.71758         5.71790         0.83251
   C        3.15536         5.63255         1.35200
   C        0.63684         3.47266         1.55041
   C       -0.31035         2.99615         2.52619
   C       -0.74561         1.56971         2.67284
   C       -1.93698         1.36413         3.60156
   C        1.36633         2.69898         0.57337
   C        1.54993         1.37162         0.54930
   N        2.28675         0.75063        -0.43916
   C        2.48833        -0.58334        -0.57547
   S        2.81365        -1.19384        -2.17489
   C        2.74623        -2.82030        -1.56487
   N        2.97447        -3.85759        -2.46235
   O        2.91507        -5.00153        -2.04128
   O        3.21423        -3.54321        -3.62026
   C        2.49050        -2.87298        -0.21969
   C        2.37886        -1.60572         0.37931
   C        2.25328        -1.44882         1.81003
   C        2.89813        -0.49954         2.52939
   C        2.76278        -0.24999         3.91823
   C        1.73575        -0.61874         4.74269
   C        1.59141        -0.22236         6.10165
   C        0.40388        -0.55922         6.66757
   C       -0.46803        -1.25996         5.80037
   S        0.30596        -1.51973         4.24997
   C       -1.75306        -1.68613         6.04688
   C       -2.51937        -1.50720         7.22358
   C       -3.77829        -2.01164         7.15782
   C       -4.09303        -2.63144         5.91639
   S       -2.70337        -2.52084         4.83352
   C       -5.24006        -3.20231         5.45520
   N       -6.38525        -3.45789         6.16438
   C       -6.52421        -3.79720         7.47153
   S       -5.20517        -4.43611         8.40720
   C       -6.31125        -4.77507         9.70637
   N       -5.78174        -5.31715        10.87182
   O       -6.54741        -5.55830        11.79189
   O       -4.57399        -5.51513        10.88819
   C       -7.60762        -4.43311         9.41878
   C       -7.75288        -3.85500         8.14717
   C       -9.02432        -3.39890         7.64157
   C       -9.19931        -2.45792         6.69303
   C      -10.43922        -1.99341         6.14632
   S      -10.40017        -0.42157         5.38019
   C      -12.08404        -0.49508         5.00611
   C      -12.73242         0.62832         4.27079
   C      -11.83398         1.20630         3.17996
   C      -12.63572        -1.67959         5.42779
   C      -11.69489        -2.54739         6.05977
   C      -12.07655        -3.90375         6.56262
   C      -12.76508        -3.81431         7.92599
   C      -14.03836        -2.04098         5.24949
   C      -15.06610        -1.22998         5.45443
   H       -1.51003         3.95484         4.08553
   H        1.37017         6.74962         0.91191
   H        1.69214         5.43845        -0.22392
   H        3.19624         5.94830         2.39171
   H        3.80621         6.27822         0.76771
   H        3.52437         4.61139         1.28907
   H        0.09375         0.98535         3.05874
   H       -0.99791         1.18136         1.68238
   H       -1.68662         1.64057         4.62331
   H       -2.22289         0.31470         3.59480
   H       -2.78973         1.95488         3.27613
   H        1.83427         3.28271        -0.21025
   H        1.15436         0.70373         1.28873
   H        2.55211         1.32507        -1.22971
   H        2.42709        -3.80143         0.31864
   H        1.68260        -2.21709         2.31106
   H        3.59566         0.14826         2.01206
   H        3.52194         0.37702         4.36771
   H        2.37031         0.32462         6.60315
   H        0.12255        -0.31385         7.67578
   H       -2.12246        -0.99570         8.08184
   H       -4.50278        -1.90706         7.94384
   H       -5.29859        -3.46350         4.40779
   H       -7.23870        -3.53703         5.62170
   H       -8.41115        -4.57820        10.11786
   H       -9.87811        -3.83737         8.13340
   H       -8.33877        -1.90693         6.33248
   H      -12.98999         1.42529         4.97658
   H      -13.66275         0.26160         3.83026
   H      -10.92221         1.61411         3.61097
   H      -12.35208         2.00215         2.65087
   H      -11.56158         0.43397         2.46415
   H      -11.19059        -4.53687         6.62738
   H      -12.76305        -4.36987         5.85234
   H      -12.11576        -3.33471         8.65539
   H      -13.02238        -4.80741         8.28665
   H      -13.67643        -3.22598         7.84582
   H      -14.21990        -3.06397         4.94354
   H      -14.93818        -0.21986         5.80421
   H      -16.08032        -1.55924         5.30517
*
