# ORCA input file
# SCF done       -190.962727714128          0.000930293731
! CAM-B3LYP def2-SVP def2/J RIJCOSX Grid4 TightSCF
%maxcore 5000
%tddft
    Mode sTDDFT
    Ethresh 5.0
    maxcore 5000
end

%pal
  nprocs 6
  end
* xyz 0 1
   C       -3.87346         1.00532        -4.47710
   C       -3.29672        -0.24310        -4.43454
   C       -2.60994        -0.83497        -5.51301
   N       -2.03538        -1.37714        -6.34740
   C       -3.30148        -1.11537        -3.32926
   N       -3.25904        -1.88429        -2.47449
   C       -3.86382         1.89363        -5.63719
   C       -4.56594         3.07897        -5.30433
   C       -4.73397         4.11537        -6.18873
   C       -4.18093         3.97863        -7.46652
   C       -3.48100         2.79363        -7.79012
   C       -3.31205         1.74322        -6.89400
   S       -2.88414         2.84179        -9.41977
   C       -3.56084         4.41778        -9.64704
   C       -4.20691         4.89075        -8.55927
   C       -5.04044         2.97941        -3.91308
   O       -5.68185         3.82456        -3.30740
   C       -4.58997         1.67970        -3.42004
   C       -4.80400         1.17836        -2.15233
   C       -5.46327         1.72534        -1.05859
   C       -5.58207         1.06252         0.19004
   C       -6.29541         1.82097         1.16240
   N       -6.51741         1.37328         2.40861
   C       -6.05421         0.19318         2.72375
   C       -5.34052        -0.63498         1.84200
   C       -5.09902        -0.20181         0.56214
   C       -6.73127         3.07038         0.65941
   S       -6.25223         3.27744        -0.98059
   C       -7.47935         4.08771         1.33641
   C       -7.85497         3.93629         2.68446
   C       -8.59214         4.92070         3.28910
   C       -8.97118         6.07932         2.58651
   C       -8.58993         6.24684         1.25886
   C       -7.85301         5.25771         0.64892
   C       -9.77507         6.90151         3.45589
   C       -9.89850         6.25574         4.70252
   C       -9.08119         4.98344         4.72063
   C       -9.91266         3.75170         5.10413
   C      -11.08358         3.52520         4.15475
   C       -7.82567         5.12537         5.61407
   C       -8.08896         5.37871         7.09261
   C      -10.70446         6.78070         5.68048
   C      -11.38136         7.99328         5.45660
   C      -11.21114         8.64106         4.22099
   C      -10.42710         8.10642         3.22302
   C      -12.25319         8.58931         6.42899
   C      -12.52024         8.12367         7.67356
   C      -13.41055         8.73187         8.58423
   S      -14.28734        10.17650         8.20012
   C      -15.07709        10.24013         9.74812
   C      -14.70289         9.13434        10.52910
   C      -13.74880         8.29472         9.87675
   C      -13.26187         7.15765        10.53995
   C      -13.71401         6.82146        11.79420
   C      -13.18037         5.64608        12.47970
   C      -12.78760         4.53099        11.87819
   C      -14.71249         7.62380        12.42134
   C      -15.26577         7.22450        13.75592
   C      -15.18751         8.74263        11.79264
   C      -15.93525        11.34112         9.98746
   C      -16.38415        11.78864        11.18648
   C      -17.26806        12.89139        11.36800
   C      -17.70433        13.37050        12.59505
   C      -18.59229        14.46385        12.37531
   C      -19.29176        15.26521        13.24100
   C      -20.10770        16.27257        12.68752
   C      -20.92599        17.21903        13.27855
   C      -21.54388        18.01021        12.25342
   C      -21.10015        17.54648        11.03223
   C      -20.19804        16.45480        11.25131
   C      -19.50064        15.65797        10.38596
   C      -18.68564        14.64483        10.93881
   C      -17.88261        13.69178        10.34353
   C      -22.46979        19.10003        12.44527
   C      -22.91796        19.53973        13.61814
   H       -5.27387         5.00499        -5.90342
   H       -2.77050         0.86111        -7.19171
   H       -3.43144         4.89779       -10.59758
   H       -4.69048         5.85005        -8.51560
   H       -4.39298         0.19681        -1.96014
   H       -6.25486        -0.13116         3.73680
   H       -4.99069        -1.59909         2.17510
   H       -4.55335        -0.82126        -0.13451
   H       -7.56270         3.04047         3.20695
   H       -8.87162         7.13477         0.71309
   H       -7.55644         5.37200        -0.38361
   H      -10.29668         3.87871         6.11724
   H       -9.26319         2.87424         5.09587
   H      -11.74508         4.38912         4.14893
   H      -11.65655         2.65468         4.46620
   H      -10.72826         3.35831         3.14057
   H       -7.22676         5.95077         5.21995
   H       -7.23849         4.21101         5.50466
   H       -8.60184         6.32566         7.23870
   H       -7.14058         5.42400         7.62400
   H       -8.68209         4.58131         7.53273
   H      -10.84050         6.25713         6.61321
   H      -11.72618         9.57622         4.05266
   H      -10.32923         8.60934         2.27241
   H      -12.74670         9.50288         6.11828
   H      -12.04187         7.22275         8.03008
   H      -12.50940         6.54684        10.06600
   H      -13.11778         5.71502        13.55749
   H      -12.86651         4.39547        10.81230
   H      -12.39184         3.69854        12.43446
   H      -14.50634         7.32352        14.53217
   H      -15.59797         6.18751        13.74024
   H      -16.10913         7.85629        14.02408
   H      -15.97116         9.31586        12.26088
   H      -16.20798        11.89436         9.09764
   H      -16.04844        11.31617        12.09769
   H      -17.42533        12.98495        13.55871
   H      -19.22954        15.13709        14.31270
   H      -21.07781        17.34589        14.33491
   H      -21.37896        17.93030        10.06769
   H      -19.56295        15.78548         9.31404
   H      -17.74049        13.56376         9.28582
   H      -22.80774        19.57516        11.53232
   H      -22.61195        19.10081        14.55229
   H      -23.61032        20.36107        13.68431
*
