# ORCA input file
# SCF done       -191.697656451810          0.000643167894
! CAM-B3LYP def2-SVP def2/J RIJCOSX Grid4 TightSCF
%maxcore 5000
%tddft
    Mode sTDDFT
    Ethresh 5.0
    maxcore 5000
end

%pal
  nprocs 6
  end
* xyz 0 1
   C       -3.07395        -1.30590         0.21750
   C       -3.58289        -2.35244        -0.50691
   C       -3.00294        -3.63671        -0.55594
   N       -2.57584        -4.69924        -0.63980
   C       -4.76994        -2.30610        -1.26824
   N       -5.73835        -2.36483        -1.88249
   C       -1.91811        -1.36225         1.10283
   C       -1.78884        -0.11413         1.76175
   C       -0.79395         0.14041         2.67438
   C        0.11247        -0.88573         2.95713
   C       -0.02162        -2.12715         2.29093
   C       -1.02444        -2.38398         1.36351
   S        1.21153        -3.24296         2.78824
   C        1.87955        -2.06370         3.86338
   C        1.21682        -0.88676         3.85537
   C       -2.83977         0.80588         1.29107
   O       -2.93250         1.98483         1.56127
   C       -3.64898         0.02150         0.32047
   C       -4.63566         0.54165        -0.46006
   C       -5.31092         1.77105        -0.20128
   C       -5.74813         2.59202        -1.26189
   C       -6.37321         3.87082        -1.02752
   N       -6.64512         4.67112        -2.07047
   C       -6.39954         4.25406        -3.28815
   C       -5.85337         2.94924        -3.52124
   N       -5.52252         2.17302        -2.52003
   C       -5.65216         2.50117        -4.85072
   N       -5.50538         2.18803        -5.94284
   C       -6.69430         5.12075        -4.36909
   N       -6.94408         5.80585        -5.25296
   C       -6.63858         4.34819         0.27826
   C       -6.26973         3.48961         1.33012
   C       -5.63434         2.21264         1.09658
   N       -5.46700         1.52726         2.22708
   S       -5.99910         2.40997         3.45356
   N       -6.50220         3.68923         2.63231
   C       -7.22160         5.65287         0.50995
   C       -8.18708         6.17511        -0.36572
   C       -8.64939         7.45052        -0.17320
   C       -8.17267         8.23564         0.89189
   C       -7.25245         7.70961         1.79137
   C       -6.79215         6.42529         1.60006
   C       -8.77289         9.54369         0.79891
   C       -9.63169         9.56954        -0.31794
   C       -9.68207         8.20979        -0.97763
   C       -9.32453         8.26119        -2.47070
   C       -7.91069         8.77452        -2.71578
   C      -11.04297         7.51246        -0.74063
   C      -12.26006         8.22950        -1.30962
   C      -10.26188        10.73448        -0.68031
   C      -10.07671        11.89508         0.08731
   C       -9.22410        11.84698         1.19997
   C       -8.57389        10.68735         1.56184
   C      -10.72399        13.14441        -0.23805
   C      -11.82591        13.28552        -0.99662
   C      -12.48992        14.53499        -1.28236
   C      -11.79449        15.78050        -1.41400
   C      -10.44260        16.01264        -1.47090
   S      -10.07405        17.66664        -1.69275
   C      -11.72499        18.09131        -1.72739
   C      -12.54786        16.99567        -1.58122
   C      -13.97573        16.97356        -1.61749
   N      -14.64175        18.14965        -1.81629
   C      -14.62653        15.73892        -1.55521
   C      -13.85807        14.56099        -1.41164
   C      -16.07262        15.65849        -1.57272
   C      -16.80551        14.58817        -1.92812
   C      -18.23926        14.57887        -1.86774
   C      -19.04103        13.56369        -2.22297
   C      -18.56453        12.25789        -2.77973
   C      -20.53476        13.67048        -2.05933
   N      -21.20782        13.49217        -3.33238
   C      -20.92587        14.34634        -4.37569
   C      -21.73429        14.58945        -5.40085
   H       -0.72033         1.10231         3.15782
   H       -1.08063        -3.34365         0.87731
   H        2.74173        -2.32994         4.44337
   H        1.48828        -0.03863         4.45767
   H       -4.92535         0.03776        -1.37346
   H       -8.56173         5.56900        -1.17422
   H       -6.88955         8.30208         2.61776
   H       -6.05754         6.01140         2.27206
   H      -10.03326         8.91007        -2.98678
   H       -9.41787         7.25847        -2.89195
   H       -7.78858         9.77614        -2.30793
   H       -7.70702         8.80526        -3.78324
   H       -7.17855         8.11944        -2.24969
   H      -11.17809         7.39549         0.33820
   H      -10.98175         6.51252        -1.17560
   H      -12.40520         9.19011        -0.82258
   H      -13.14793         7.62512        -1.13547
   H      -12.16294         8.38421        -2.38082
   H      -10.87066        10.77986        -1.56954
   H       -9.07940        12.74600         1.78247
   H       -7.91188        10.67112         2.41474
   H      -10.30552        14.01960         0.24098
   H      -12.33384        12.40252        -1.36340
   H       -9.64153        15.30340        -1.43915
   H      -11.98703        19.11929        -1.88038
   H      -14.15750        19.00690        -1.61892
   H      -15.63946        18.16119        -1.69605
   H      -14.39310        13.62782        -1.31851
   H      -16.61282        16.54292        -1.25216
   H      -16.31857        13.69424        -2.28568
   H      -18.69532        15.48460        -1.48367
   H      -17.69122        12.38502        -3.41326
   H      -19.35685        11.80106        -3.36727
   H      -18.30273        11.57653        -1.96913
   H      -20.79304        14.63199        -1.58730
   H      -20.87563        12.86645        -1.39730
   H      -22.18122        13.22962        -3.26394
   H      -19.93340        14.77436        -4.32868
   H      -22.72157        14.16338        -5.45889
   H      -21.42169        15.20554        -6.22206
*
