# ORCA input file
# SCF done       -214.373623284584          0.000358846245
! CAM-B3LYP def2-SVP def2/J RIJCOSX Grid4 TightSCF
%maxcore 5000
%tddft
    Mode sTDDFT
    Ethresh 5.0
    maxcore 5000
end

%pal
  nprocs 6
  end
* xyz 0 1
   C      -18.87262       -10.69100        -1.44701
   C      -17.56879       -11.11662        -1.56878
   C      -17.19534       -12.41218        -1.97488
   N      -16.82143       -13.44893        -2.30048
   C      -16.42091       -10.33820        -1.32341
   N      -15.43015        -9.77995        -1.15473
   C      -20.05061       -11.51081        -1.72904
   C      -21.20876       -10.72089        -1.53274
   C      -22.47874       -11.20806        -1.71545
   C      -22.61510       -12.54449        -2.10830
   C      -21.45343       -13.32649        -2.29948
   C      -20.16708       -12.83133        -2.11721
   S      -21.84789       -14.95094        -2.77748
   C      -23.54589       -14.56004        -2.71413
   C      -23.80647       -13.28134        -2.35494
  Br      -24.81525       -15.87890        -3.12750
   C      -20.80428        -9.36297        -1.10727
   O      -21.55459        -8.43708        -0.86245
   C      -19.33210        -9.38881        -1.04222
   C      -18.54736        -8.33261        -0.61873
   C      -19.02867        -7.09370        -0.21374
   C      -18.21008        -6.08368         0.25734
   C      -18.62460        -4.81450         0.72075
   C      -17.60688        -4.02435         1.16914
   C      -16.33619        -4.62995         1.07434
   S      -16.47381        -6.23513         0.38853
   C      -15.11413        -4.10846         1.45933
   C      -14.85897        -2.86174         2.07901
   C      -13.54691        -2.64866         2.35701
   C      -12.67530        -3.70499         1.96569
   S      -13.62742        -4.98809         1.22997
   C      -11.32506        -3.69220         2.17194
   C      -10.32119        -4.65192         1.84263
   C       -9.02046        -4.43020         2.34330
   C       -8.02394        -5.33274         2.08545
   C       -8.28005        -6.47612         1.30422
   C       -9.54970        -6.69709         0.78286
   C      -10.55352        -5.79498         1.05707
   C       -7.06698        -7.25041         1.21236
   C       -6.06238        -6.60424         1.96088
   C       -6.59074        -5.32844         2.57586
   C       -5.82141        -4.09357         2.07985
   C       -5.88196        -3.93891         0.56463
   C       -6.63385        -5.39249         4.11862
   C       -5.29990        -5.56828         4.83324
   C       -4.80802        -7.14924         2.04883
   C       -4.53317        -8.37615         1.41760
   C       -5.52663        -8.97397         0.62648
   C       -6.78781        -8.42666         0.52567
   C       -3.27908        -9.04838         1.62191
   C       -2.52472        -8.87649         2.73853
   C       -1.32790        -9.55122         3.03948
   C       -0.71500        -9.44177         4.26203
   C        0.48766       -10.04616         4.70178
   C        0.82131        -9.75735         5.99064
   C       -0.10839        -8.91762         6.64675
   S       -1.40725        -8.48665         5.57079
   C       -0.08468        -8.46348         7.95347
   C        0.88608        -8.67552         8.95226
   C        0.58495        -8.07765        10.14068
   C       -0.65180        -7.39018        10.15480
   S       -1.40327        -7.49982         8.58724
   C       -1.13994        -6.64681        11.21842
   C       -2.33409        -5.94542        11.32760
   C       -3.53192        -6.01933        10.63104
   C       -4.17141        -7.04592         9.87246
   C       -3.86820        -8.39429         9.87504
   C       -4.48565        -9.34771         9.04742
   N       -4.92032       -10.16483         8.36570
   C       -2.95648        -8.98312        10.76746
   N       -2.24153        -9.50825        11.49787
   C       -5.33481        -6.45713         9.20682
   C       -5.47203        -5.11618         9.63950
   C       -4.39413        -4.81635        10.60948
   O       -4.23532        -3.78813        11.23295
   C       -6.47302        -4.29233         9.19049
   C       -7.39039        -4.82003         8.27300
   C       -7.26868        -6.17098         7.87884
   C       -6.24878        -7.00370         8.32878
   S       -8.52380        -6.62768         6.76516
   C       -9.15160        -5.00153         6.80310
   C       -8.48166        -4.16864         7.63263
  Br      -10.61520        -4.54974         5.71601
   H      -23.34161       -10.57996        -1.55818
   H      -19.31456       -13.47040        -2.27448
   H      -24.79640       -12.87243        -2.26579
   H      -17.47433        -8.47543        -0.57807
   H      -20.09227        -6.90732        -0.24858
   H      -19.66150        -4.52933         0.71348
   H      -17.73900        -3.03123         1.55948
   H      -15.64827        -2.16915         2.30868
   H      -13.16378        -1.76457         2.83508
   H      -10.96079        -2.81557         2.69525
   H       -8.83203        -3.55050         2.94169
   H       -9.75194        -7.56699         0.17708
   H      -11.53463        -5.96984         0.64749
   H       -4.77786        -4.17567         2.38648
   H       -6.24308        -3.20441         2.55338
   H       -5.45570        -4.81068         0.07287
   H       -5.31973        -3.06077         0.25562
   H       -6.91020        -3.82505         0.22856
   H       -7.28612        -6.22573         4.39017
   H       -7.10435        -4.47118         4.47144
   H       -4.89233        -6.55999         4.65942
   H       -5.44539        -5.45438         5.90587
   H       -4.57512        -4.82314         4.51693
   H       -4.01778        -6.63647         2.57280
   H       -5.30071        -9.90038         0.11859
   H       -7.54811        -8.90675        -0.07138
   H       -2.98283        -9.78605         0.88738
   H       -2.88100        -8.20240         3.50721
   H       -0.87764       -10.19320         2.29454
   H        1.06785       -10.67571         4.05028
   H        1.69736       -10.13063         6.48951
   H        1.77397        -9.25420         8.77237
   H        1.20206        -8.12804        11.01961
   H       -0.44267        -6.52892        12.03882
   H       -2.32631        -5.13583        12.05329
   H       -6.55025        -3.27288         9.53463
   H       -6.18772        -8.02220         7.98365
   H       -8.73729        -3.13571         7.78396
*
