# ORCA input file
# SCF done       -188.355719269804          0.000711660106
! CAM-B3LYP def2-SVP def2/J RIJCOSX Grid4 TightSCF
%maxcore 5000
%tddft
    Mode sTDDFT
    Ethresh 5.0
    maxcore 5000
end

%pal
  nprocs 6
  end
* xyz 0 1
   C       -4.17802        10.88985         0.59776
   C       -4.31502        11.73614         1.67183
   C       -3.94119        13.09462         1.66413
   N       -3.64540        14.20264         1.72617
   C       -4.83826        11.36510         2.92624
   N       -5.26115        11.13226         3.96878
   C       -3.68470        11.26739        -0.72356
   C       -3.67884        10.12136        -1.55540
   C       -3.28402        10.16027        -2.86913
   C       -2.88809        11.39477        -3.39408
   C       -2.89453        12.53416        -2.55578
   C       -3.28431        12.49255        -1.22266
   S       -2.36351        13.95474        -3.40469
   C       -2.14580        13.01128        -4.85441
   C       -2.45271        11.70041        -4.71288
  Br       -1.53018        13.84495        -6.41732
   C       -4.13535         8.95500        -0.77863
   O       -4.01491         7.78853        -1.09204
   C       -4.56019         9.49993         0.53893
   C       -5.14251         8.74504         1.52739
   C       -5.85565         7.57628         1.22996
   C       -6.50850         7.29104         0.02507
   C       -7.17311         6.02338         0.02783
   N       -7.80351         5.54722        -1.04258
   C       -7.79373         6.31581        -2.11963
   C       -8.47247         5.79494        -3.32364
   O       -9.00951         4.70357        -3.35517
   C       -8.48080         6.70817        -4.47860
   C       -7.94408         7.93317        -4.45981
   C       -7.25835         8.50395        -3.28870
   O       -6.72127         9.59251        -3.31773
   C       -7.21982         7.62404        -2.09349
   N       -6.61276         8.10136        -1.02952
   C       -7.06036         5.35894         1.25974
   S       -6.15084         6.29583         2.39349
   N       -7.57525         4.12495         1.43696
   C       -7.51025         3.28847         2.49551
   S       -6.72953         3.73859         3.97767
   C       -7.09867         2.16507         4.61631
   N       -6.67967         1.88185         5.92192
   O       -6.93052         0.77853         6.37103
   O       -6.08901         2.76953         6.51233
   C       -7.77511         1.35678         3.74650
   C       -8.03587         1.97728         2.50508
   C       -8.72312         1.38499         1.41026
   C       -9.12457         0.07985         1.36472
   C       -9.80980        -0.49305         0.28867
   C      -10.16921        -1.82312         0.23805
   C      -10.87488        -2.48601        -0.78995
   C      -11.07956        -3.81740        -0.56183
   C      -10.53957        -4.27624         0.65453
   S       -9.77066        -2.95989         1.51186
   C      -10.55178        -5.56072         1.17606
   C      -11.13594        -6.72271         0.63121
   C      -10.95912        -7.83623         1.39807
   C      -10.22124        -7.62364         2.58842
   S       -9.77126        -5.92822         2.69150
   C       -9.90489        -8.59374         3.50810
   C       -9.15832        -8.48404         4.69654
   C       -8.89103        -9.55737         5.55846
   C       -8.10520        -9.09418         6.63722
   C       -7.57547        -9.73873         7.73678
   C       -6.81783        -8.97651         8.63588
   C       -6.16056        -9.32090         9.81155
   C       -5.52672        -8.15976        10.34957
   C       -5.79400        -7.09491         9.50469
   C       -6.59856        -7.55614         8.41850
   C       -7.12321        -6.90925         7.33234
   C       -7.88596        -7.67389         6.42271
   C       -8.52600        -7.31836         5.25256
   C       -4.74061        -8.08099        11.55747
   C       -4.48212        -9.09424        12.37953
   H       -3.29203         9.26981        -3.47726
   H       -3.26989        13.38898        -0.62531
   H       -2.37728        10.97710        -5.50426
   H       -5.10045         9.05802         2.56184
   H       -8.96642         6.32124        -5.36446
   H       -7.97674         8.57477        -5.33021
   H       -8.05090         3.78172         0.60267
   H       -8.07227         0.35938         4.01244
   H       -8.93841         2.00604         0.55018
   H       -8.90107        -0.57375         2.19673
   H      -10.07584         0.12903        -0.55526
   H      -11.21110        -1.96125        -1.66654
   H      -11.59726        -4.47348        -1.23843
   H      -11.66846        -6.70856        -0.30257
   H      -11.33443        -8.81178         1.14283
   H      -10.27670        -9.58640         3.28124
   H       -9.22743       -10.56847         5.41960
   H       -7.73402       -10.79468         7.90370
   H       -6.13191       -10.30298        10.24645
   H       -5.45636        -6.08299         9.63497
   H       -6.96619        -5.85366         7.16259
   H       -8.54547        -6.33288         4.82736
   H       -4.34391        -7.09804        11.77809
   H       -4.85260       -10.08921        12.20177
   H       -3.88395        -8.96149        13.26405
*
