# ORCA input file
# SCF done       -180.037636275232          0.000790800792
! CAM-B3LYP def2-SVP def2/J RIJCOSX Grid4 TightSCF
%maxcore 5000
%tddft
    Mode sTDDFT
    Ethresh 5.0
    maxcore 5000
end

%pal
  nprocs 6
  end
* xyz 0 1
   C        5.41018       -13.41967        -4.81887
   C        5.89318       -12.17371        -4.90849
   C        6.88974       -11.66637        -5.80932
   C        7.19677       -10.36329        -5.62583
   C        6.47108        -9.73801        -4.57208
   S        5.35852       -10.86668        -3.84778
   C        6.58194        -8.44399        -4.11697
   C        7.38673        -7.39480        -4.61900
   C        7.23721        -6.21881        -3.95128
   C        6.31296        -6.27354        -2.87768
   S        5.64716        -7.88462        -2.74342
   C        5.93077        -5.23523        -2.06695
   C        5.02894        -5.33235        -0.99946
   O        4.54469        -6.52410        -0.55314
   C        3.67573        -6.28506         0.46540
   C        3.60986        -4.90488         0.68859
   C        4.47170        -4.30021        -0.23547
   O        4.73495        -2.99262        -0.39212
   S        2.65845        -3.97834         1.84682
   C        3.04331        -7.35608         1.13180
   S        1.70398        -7.07047         2.20764
   C        1.55619        -8.77244         2.59080
   C        2.50433        -9.50403         1.87608
   C        3.32166        -8.72110         1.05705
   C        4.36753        -9.29711         0.15415
   C        4.60515       -10.78065         0.44740
   N        5.38828       -11.35336        -0.68121
   O        6.47599       -10.88269        -0.88038
   O        4.86613       -12.22845        -1.32892
   C        3.27414       -11.49705         0.60109
   N        3.45948       -12.96804         0.76445
   O        2.55024       -13.66492         0.40128
   O        4.47104       -13.33465         1.30515
   C        2.59409       -10.99726         1.87828
   C        0.51312        -9.14494         3.45746
   C        0.42595       -10.19944         4.33635
   C       -0.73539       -10.54710         5.06923
   C       -0.55808       -11.56333         5.96136
   C        0.76291       -12.05189         6.01036
   S        1.76443       -11.20932         4.85714
   C        1.29567       -13.02176         6.84627
   C        0.62945       -13.80877         7.80514
   C        1.45930       -14.64775         8.49470
   C        2.81705       -14.54928         8.12376
   S        3.00673       -13.37984         6.83870
   C        3.88395       -15.22757         8.68748
   C        5.20059       -15.00453         8.30786
   C        6.30574       -15.62093         8.86572
   C        7.68283       -15.37445         8.53224
   C        8.17258       -14.45551         7.63059
   C        9.54181       -14.26533         7.36245
   N       10.64042       -14.05623         7.09764
   C        7.40358       -13.55901         6.86344
   N        6.86655       -12.78215         6.20757
   C        8.50520       -16.26223         9.35401
   C        7.65252       -17.02418        10.18857
   C        6.24690       -16.65092         9.91738
   O        5.26464       -17.11424        10.46600
   C        8.12549       -17.94466        11.08980
   C        9.51110       -18.12391        11.17341
   C       10.35482       -17.36107        10.33458
   C        9.87464       -16.42904         9.42119
   S       12.03095       -17.73703        10.60180
   C       11.57892       -18.89787        11.82166
   C       10.24402       -19.00121        12.01977
  Br       12.91370       -19.86249        12.72134
   H        5.75931       -14.19507        -5.47821
   H        4.67837       -13.68300        -4.07706
   H        7.33927       -12.30793        -6.54639
   H        7.92916        -9.82338        -6.19941
   H        8.04260        -7.53455        -5.45944
   H        7.75883        -5.30896        -4.18947
   H        6.31945        -4.24683        -2.25843
   H        4.24729        -2.49006         0.27606
   H        2.79490        -4.81439         2.87182
   H        5.30258        -8.74339         0.25046
   H        4.03897        -9.17827        -0.88362
   H        5.21519       -10.90506         1.34906
   H        2.63334       -11.34959        -0.27330
   H        3.18445       -11.33140         2.73823
   H        1.59595       -11.43124         1.96790
   H       -0.32612        -8.45915         3.47960
   H       -1.66995       -10.04051         4.90485
   H       -1.33398       -11.95700         6.59241
   H       -0.43236       -13.74391         7.96156
   H        1.13800       -15.32521         9.26560
   H        3.67517       -15.93951         9.47269
   H        5.36474       -14.27861         7.52067
   H        7.44934       -18.50891        11.71287
   H       10.56074       -15.87301         8.80467
   H        9.79202       -19.66645        12.73271
*
