# ORCA input file
# SCF done       -161.604536580998          0.000782685122
! CAM-B3LYP def2-SVP def2/J RIJCOSX Grid4 TightSCF
%maxcore 5000
%tddft
    Mode sTDDFT
    Ethresh 5.0
    maxcore 5000
end

%pal
  nprocs 6
  end
* xyz 0 1
   C       -3.17829        -7.03890        -4.87751
   C       -2.32600        -6.23144        -4.22614
   C       -1.97109        -4.88395        -4.54972
   C       -1.09534        -4.31286        -3.68614
   C       -0.68490        -5.15612        -2.62423
   S       -1.44782        -6.73106        -2.77233
   C        0.17759        -4.85194        -1.58787
   C        0.78264        -3.61121        -1.29219
   C        1.55103        -3.62683        -0.16524
   C        1.61376        -4.87832         0.48741
   S        0.65429        -6.05378        -0.39495
   C        2.29281        -5.14963         1.65626
   C        2.39030        -6.37940         2.30417
   S        1.75202        -7.86041         1.65299
   C        2.30653        -8.78721         3.03325
   C        2.96418        -7.94775         3.94621
   C        3.03103        -6.61776         3.53754
   O        3.66502        -5.57940         4.16111
   C        3.24458        -5.23682         5.46783
   C        3.84498        -6.10346         6.57585
   C        3.19034        -7.47102         6.68458
   S        3.71382        -8.64122         5.38388
   C        2.07488       -10.16020         3.10259
   C        1.49022       -10.81703         2.04012
   C        1.12099       -12.14320         1.90436
   C        0.56305       -12.58951         0.70851
   C        0.02622       -13.83827         0.36468
   C       -0.47938       -13.90468        -0.91489
   C       -0.34076       -12.71424        -1.63638
   S        0.43737       -11.49905        -0.65755
   C       -0.71202       -12.36383        -2.93498
   C       -1.40656       -13.07592        -3.92103
   C       -1.60873       -12.35235        -5.06963
   C       -1.05585       -11.05548        -5.04575
   S       -0.27937       -10.77596        -3.51475
   C       -1.19387       -10.09651        -6.03522
   C       -0.66069        -8.81093        -6.11006
   S       -1.39303        -7.71103        -7.25580
   C       -0.31766        -6.42103        -6.80942
   C        0.62140        -6.86762        -5.85640
   C        0.43468        -8.19260        -5.46196
   O        1.22866        -8.97304        -4.68369
   C        1.77881        -8.48617        -3.47247
   C        2.98110        -7.56157        -3.63937
   C        2.56625        -6.12058        -3.86030
   S        1.96185        -5.76631        -5.53918
   C       -0.40765        -5.15168        -7.37894
   C       -1.30928        -4.80592        -8.35854
   C       -1.39769        -3.53659        -8.91907
   C       -2.27411        -3.18522        -9.92615
   C       -2.39356        -1.92400       -10.54733
   C       -3.33551        -1.86752       -11.53241
   C       -4.01623        -3.08705       -11.74244
   S       -3.41919        -4.30944       -10.63775
   C       -5.00791        -3.35602       -12.66217
   C       -5.57294        -2.46237       -13.60898
   C       -6.53170        -3.00952       -14.39262
   C       -6.79924        -4.39115       -14.12202
   S       -5.75088        -4.93726       -12.80373
   C       -7.68535        -5.19301       -14.73122
   H       -3.71582        -6.68502        -5.73865
   H       -3.36749        -8.04467        -4.54922
   H       -2.39275        -4.39752        -5.41098
   H       -0.72073        -3.30903        -3.78036
   H        0.62529        -2.74106        -1.90383
   H        2.07786        -2.77146         0.22029
   H        2.80381        -4.32451         2.13549
   H        3.58419        -4.20487         5.59539
   H        2.14715        -5.25599         5.52929
   H        3.71432        -5.57647         7.52400
   H        4.91481        -6.22182         6.39244
   H        3.48701        -7.96564         7.60929
   H        2.10219        -7.39872         6.65116
   H        2.37494       -10.68434         3.99870
   H        1.28227       -10.19253         1.17666
   H        1.24197       -12.84389         2.71819
   H        0.00892       -14.65914         1.06045
   H       -0.93560       -14.78224        -1.33818
   H       -1.75062       -14.08396        -3.77111
   H       -2.13491       -12.72223        -5.93240
   H       -1.86782       -10.35766        -6.84310
   H        1.00232        -7.99643        -2.87238
   H        2.08811        -9.39527        -2.95109
   H        3.59858        -7.91187        -4.46938
   H        3.57394        -7.61088        -2.72375
   H        1.79600        -5.82026        -3.15042
   H        3.41823        -5.44640        -3.76434
   H        0.28595        -4.40677        -7.01247
   H       -1.98563        -5.56906        -8.72570
   H       -0.72987        -2.76515        -8.55702
   H       -1.77555        -1.09422       -10.25110
   H       -3.55362        -0.98722       -12.10999
   H       -5.24712        -1.43943       -13.67745
   H       -7.06904        -2.48667       -15.16382
   H       -8.30497        -4.82072       -15.52774
   H       -7.80613        -6.22176       -14.44590
*
