# ORCA input file
# SCF done       -176.783377289623          0.000346629162
! CAM-B3LYP def2-SVP def2/J RIJCOSX Grid4 TightSCF
%maxcore 5000
%tddft
    Mode sTDDFT
    Ethresh 5.0
    maxcore 5000
end

%pal
  nprocs 6
  end
* xyz 0 1
   C       10.96410        -7.93269         6.75853
   C       10.47408        -6.88861         6.07811
   C       10.84764        -5.50731         6.20117
   C       10.17668        -4.67078         5.38155
   C        9.21896        -5.31058         4.54282
   S        9.21249        -7.04058         4.84514
   C        8.39018        -4.72444         3.62354
   C        8.28359        -3.34678         3.29161
   C        7.35303        -3.07745         2.34712
   C        6.64422        -4.21768         1.85528
   S        7.26039        -5.66045         2.66037
   C        5.62585        -4.15701         0.95731
   C        4.81447        -5.21226         0.41631
   C        5.16752        -6.56817         0.49187
   C        4.36238        -7.57785        -0.00994
   C        3.15315        -7.20599        -0.60308
   C        2.77631        -5.85461        -0.70767
   C        3.61417        -4.86911        -0.21280
   C        1.48635        -5.69811        -1.33238
   C        0.91115        -6.93432        -1.66667
   S        1.93569        -8.28741        -1.24303
   C       -0.33114        -7.01735        -2.27330
   C       -1.00805        -5.84492        -2.54830
   C       -0.45285        -4.61093        -2.22351
   C        0.78506        -4.53111        -1.61905
   C        4.77781        -8.98282         0.10141
   C        4.61059        -9.85743        -0.97428
   C        4.98525       -11.17284        -0.83647
   C        5.54074       -11.63741         0.36557
   C        5.72608       -10.76985         1.43045
   C        5.34249        -9.44872         1.28920
   C        5.82596       -13.05196         0.22124
   C        5.43936       -13.45635        -1.06689
   C        4.87608       -12.29057        -1.84558
   C        5.71296       -11.99807        -3.10438
   C        7.18368       -11.75091        -2.79120
   C        3.40927       -12.53283        -2.24732
   C        2.50750       -12.81224        -1.05127
   C        5.59599       -14.76122        -1.46442
   C        6.15679       -15.69986        -0.58506
   C        6.53331       -15.27988         0.69591
   C        6.37208       -13.97052         1.10455
   C        6.31257       -17.06406        -1.04729
   C        6.99611       -18.04327        -0.43658
   C        7.15394       -19.40201        -0.91983
   C        6.35951       -19.93812        -1.93754
   C        6.53558       -21.22813        -2.42957
   C        7.51435       -22.02178        -1.81971
   C        8.30240       -21.52029        -0.76840
   C        8.12698       -20.21411        -0.33761
   C        9.19924       -22.51778        -0.24103
   C        9.04042       -23.75683        -0.88133
   S        7.82140       -23.71228        -2.13349
   C        9.79394       -24.86226        -0.52271
   C       10.71943       -24.72505         0.49351
   C       10.88956       -23.50422         1.13966
   C       10.13801       -22.40441         0.78001
   C        5.68041       -21.68554        -3.50751
   C        6.04807       -22.35675        -4.62373
   C        5.15910       -22.78322        -5.66240
   C        5.76619       -23.36053        -6.72208
   C        7.18436       -23.42772        -6.61431
   S        7.70701       -22.73520        -5.08858
   C        8.06859       -23.93451        -7.52793
   C        7.76874       -24.50862        -8.79816
   C        8.84953       -24.91266        -9.49731
   C       10.10460       -24.68936        -8.83504
   S        9.80402       -23.93711        -7.25992
   C       11.33039       -24.97858        -9.28957
   H       11.73037        -7.79343         7.50049
   H       10.61313        -8.93394         6.58839
   H       11.60540        -5.20614         6.90282
   H       10.32979        -3.60656         5.34288
   H        8.89595        -2.60254         3.76882
   H        7.13182        -2.09186         1.97566
   H        5.35410        -3.15845         0.63458
   H        6.11776        -6.84502         0.91805
   H        3.32498        -3.83166        -0.29107
   H       -0.75377        -7.97866        -2.52139
   H       -1.97802        -5.88738        -3.02046
   H       -0.99869        -3.70671        -2.44791
   H        1.21209        -3.57170        -1.36876
   H        4.20890        -9.49491        -1.90862
   H        6.15653       -11.11568         2.35836
   H        5.46286        -8.76581         2.11749
   H        5.29610       -11.12082        -3.60398
   H        5.62533       -12.84516        -3.78841
   H        7.29480       -10.90265        -2.11946
   H        7.73179       -11.54026        -3.70689
   H        7.62698       -12.62384        -2.31723
   H        3.37082       -13.37866        -2.93745
   H        3.04185       -11.65087        -2.77619
   H        2.85220       -13.68840        -0.50621
   H        1.48807       -12.99202        -1.38525
   H        2.50151       -11.96366        -0.37112
   H        5.29849       -15.07538        -2.45550
   H        6.94893       -15.99605         1.38806
   H        6.66639       -13.66921         2.09914
   H        5.83956       -17.26769        -1.99944
   H        7.52037       -17.83268         0.48605
   H        5.58144       -19.33416        -2.37886
   H        8.74211       -19.82821         0.46172
   H        9.65527       -25.80426        -1.03011
   H       11.31693       -25.57435         0.78911
   H       11.61898       -23.41899         1.93134
   H       10.27452       -21.45913         1.28328
   H        4.64005       -21.39192        -3.43590
   H        4.09642       -22.64307        -5.56684
   H        5.24835       -23.74095        -7.58456
   H        6.75413       -24.59909        -9.14411
   H        8.81862       -25.36741       -10.47179
   H       11.46464       -25.43326       -10.25526
   H       12.21200       -24.76764        -8.71278
*
