# ORCA input file
# SCF done       -223.384523352077          0.000741243735
! CAM-B3LYP def2-SVP def2/J RIJCOSX Grid4 TightSCF
%maxcore 5000
%tddft
    Mode sTDDFT
    Ethresh 5.0
    maxcore 5000
end

%pal
  nprocs 6
  end
* xyz 0 1
   C        0.60510        -3.56113         4.72530
   C        1.88713        -3.34008         5.20226
   C        2.88916        -3.00833         4.28964
   C        4.20638        -2.77278         4.75478
   N        5.26904        -2.58329         5.13684
   C        2.61576        -2.90244         2.91151
   C        3.65325        -2.57049         2.00856
   N        4.47960        -2.30840         1.25983
   C        1.32180        -3.12006         2.43637
   C        0.33783        -3.44061         3.34742
   C       -1.10163        -3.69686         3.09451
   O       -1.66742        -3.65390         2.02490
   C       -1.68555        -3.96520         4.42698
   C       -0.62039        -3.95806         5.41170
   C       -0.71284        -4.40134         6.69931
   C        0.36229        -4.42247         7.61177
   N        1.20066        -4.46067         8.39471
   C       -1.86620        -5.00729         7.24318
   N       -2.73445        -5.57167         7.73803
   C       -3.01764        -4.06920         4.63696
   C       -3.97992        -4.26386         3.55827
   C       -4.95454        -3.29130         3.29722
   C       -4.82541        -2.06457         4.08961
   O       -3.86508        -1.88614         4.81525
   C       -5.91308        -1.05608         3.96927
   C       -6.07614        -0.12902         2.99501
   S       -7.46450         0.85778         3.27043
   C       -7.82426         0.02109         4.71909
   C       -6.91800        -0.96740         4.98379
   C       -6.92134        -1.96052         6.07240
   O       -6.34688        -3.02322         5.91360
   C       -7.63889        -1.62239         7.31906
   C       -7.70903        -0.31647         7.80078
   C       -8.36753        -0.05339         8.98770
   C       -8.96371        -1.08296         9.69868
   C       -8.88265        -2.38602         9.23328
   C       -8.21409        -2.65736         8.05554
   C       -5.92898        -3.53183         2.33355
   C       -5.93834        -4.72311         1.63798
   C       -4.96048        -5.69048         1.87896
   C       -3.97778        -5.44071         2.83103
   C       -4.95928        -6.98131         1.16958
   C       -6.03619        -7.45823         0.29837
   C       -6.11988        -8.81426         0.31600
   C       -5.17334        -9.35965         1.22232
   C       -4.38399        -8.23948         1.74860
   S       -3.27440        -7.46930         0.45809
   C       -4.92385       -10.62931         1.71441
   C       -4.07468       -10.72751         2.88538
   C       -3.67059        -9.57274         3.52635
   O       -3.85406        -8.34212         3.00782
   C       -3.13848        -9.52329         4.87990
   C       -3.68128       -10.22397         5.92510
   S       -2.96913        -9.81886         7.42687
   C       -1.92982        -8.68924         6.67274
   C       -2.10643        -8.62965         5.32118
   C       -1.25512        -7.78262         4.45756
   O       -0.87444        -6.68615         4.82621
   C       -0.85990        -8.34919         3.15083
   C       -0.78702        -9.72537         2.93184
   C       -0.40812       -10.20917         1.69461
   C       -0.09129        -9.33169         0.66897
   C       -0.13389        -7.96446         0.88697
   C       -0.51167        -7.47474         2.12252
   C       -3.73715       -12.02921         3.35945
   C       -4.29497       -13.13548         2.81882
   C       -5.24257       -13.03622         1.74809
   C       -5.49316       -11.80525         1.18772
   C       -5.89904       -14.19692         1.21949
   C       -6.21816       -15.35098         1.85953
   C       -6.56390       -16.56128         1.06459
   O       -6.80493       -16.61284        -0.11672
   C       -6.49413       -17.68585         2.02689
   C       -6.61662       -19.03628         1.77873
   C       -6.48611       -19.91774         2.85360
   C       -6.23141       -19.42284         4.14709
   C       -6.11823       -18.05245         4.38919
   C       -6.25570       -17.18157         3.32148
   C       -6.22487       -15.71976         3.26039
   C       -6.41493       -14.88061         4.32619
   C       -6.67578       -13.49768         4.21760
   N       -6.97005       -12.38809         4.21221
   C       -6.46860       -15.31614         5.66742
   N       -6.49413       -15.62013         6.77343
   C       -6.08480       -20.33349         5.22327
   N       -5.96230       -21.06197         6.09760
   C       -6.60465       -21.31265         2.64185
   N       -6.70240       -22.43726         2.45097
   H        2.13095        -3.41180         6.25061
   H        1.09643        -3.03894         1.38348
   H       -3.42269        -4.13289         5.63955
   H       -5.46210         0.04336         2.13372
   H       -8.70101         0.28001         5.27905
   H       -7.21793         0.48379         7.26760
   H       -8.41251         0.95818         9.36292
   H       -9.48147        -0.87020        10.62202
   H       -9.33518        -3.19010         9.79378
   H       -8.13156        -3.66688         7.68154
   H       -6.67859        -2.78224         2.12803
   H       -6.70566        -4.90061         0.90153
   H       -3.20486        -6.16736         3.02032
   H       -6.64751        -6.80583        -0.29568
   H       -6.81579        -9.39908        -0.25594
   H       -4.50076       -10.91486         5.88265
   H       -1.21666        -8.13858         7.25340
   H       -0.99113       -10.41511         3.73766
   H       -0.35689       -11.27554         1.53013
   H        0.19514        -9.71534        -0.29849
   H        0.11570        -7.27947         0.09187
   H       -0.56656        -6.41080         2.30001
   H       -3.01059       -12.11467         4.15285
   H       -3.99944       -14.11679         3.15834
   H       -6.16028       -11.72161         0.34350
   H       -6.14049       -14.17759         0.16134
   H       -6.80768       -19.40129         0.78103
   H       -5.91857       -17.70827         5.39180
*
