# ORCA input file
# SCF done       -225.824292994360          0.000554983357
! CAM-B3LYP def2-SVP def2/J RIJCOSX Grid4 TightSCF
%maxcore 5000
%tddft
    Mode sTDDFT
    Ethresh 5.0
    maxcore 5000
end

%pal
  nprocs 6
  end
* xyz 0 1
   C       -0.53883        -5.22397       -12.90757
   C        0.17433        -4.58629       -13.90940
   C        1.22147        -3.73704       -13.54506
   C        1.96085        -3.07280       -14.55471
   N        2.55460        -2.53699       -15.37394
   C        1.55604        -3.52647       -12.19406
   C        2.62007        -2.65802       -11.85363
   N        3.47775        -1.96033       -11.55447
   C        0.83515        -4.17282       -11.18838
   C       -0.19663        -5.00621       -11.56165
   C       -1.10062        -5.78606       -10.68056
   O       -1.03693        -5.80477        -9.46925
   C       -2.03189        -6.48273       -11.59372
   C       -1.67190        -6.15001       -12.95688
   C       -2.25600        -6.59895       -14.11568
   C       -1.84013        -6.22146       -15.41032
   N       -1.55747        -5.95446       -16.49047
   C       -3.34092        -7.49508       -14.21193
   N       -4.21647        -8.21761       -14.38962
   C       -3.09231        -7.29207       -11.25263
   C       -3.56031        -7.66353        -9.98799
   O       -2.94790        -7.25988        -8.83158
   C       -3.66848        -7.75428        -7.83472
   C       -3.72587        -7.77444        -6.43728
   C       -2.79930        -7.12833        -5.48440
   O       -2.92366        -7.20043        -4.27703
   N       -1.80081        -6.44970        -6.08678
   C       -4.87550        -8.53227        -6.15220
   O       -5.49371        -8.96935        -7.29590
   C       -4.76344        -8.49483        -8.32193
   C       -4.69822        -8.44564        -9.70477
   C       -5.42564        -8.80410        -4.87987
   C       -6.59092        -9.47461        -4.69694
   C       -7.26472        -9.68246        -3.45061
   C       -8.52831       -10.24239        -3.47140
   C       -9.28102       -10.35882        -2.28957
   C      -10.57459       -10.81212        -2.05866
   C      -11.54737       -11.40587        -3.02000
   C      -11.83267       -10.48549        -4.22262
   N      -13.20868       -10.66742        -4.64846
   C      -11.06522       -12.79672        -3.47362
   N      -11.09166       -13.70308        -2.33940
   C      -10.83609       -10.61136        -0.65307
   C      -11.95179       -10.81179         0.07096
   C      -12.01913       -10.42757         1.51085
   C      -10.72046        -9.97946         2.09816
   C       -9.61520        -9.78238         1.35674
   C       -9.62694       -10.05330        -0.03399
   C       -8.69148        -9.90002        -1.03471
   C       -7.37202        -9.38590        -1.03327
   C       -6.68848        -9.27777        -2.19809
   C      -12.74503       -11.48955         2.28824
   C      -12.25122       -12.18141         3.31751
   C      -13.01659       -13.15090         4.04747
   O      -14.29202       -13.44558         3.63225
   C      -14.76958       -14.33016         4.52173
   C      -15.91737       -15.07851         4.83228
   C      -17.22997       -15.10433         4.15742
   O      -18.18858       -15.72982         4.57104
   N      -17.27405       -14.36377         3.03071
   C      -15.57109       -15.75581         6.01254
   O      -14.29937       -15.46686         6.41084
   C      -13.81457       -14.60500         5.50608
   C      -12.67653       -13.84598         5.19408
   C      -16.44220       -16.56282         6.77773
   C      -16.23694       -17.00808         8.04246
   C      -17.21696       -17.73009         8.76984
   C      -18.56433       -17.79556         8.56513
   C      -19.31955       -18.91554         9.18932
   O      -18.93784       -19.65460        10.06550
   C      -20.61001       -18.96581         8.46298
   C      -21.61493       -19.90606         8.55191
   C      -22.72206       -19.76645         7.71335
   C      -22.78856       -18.69630         6.79938
   C      -21.77201       -17.74249         6.72723
   C      -20.68504       -17.87645         7.57366
   C      -19.49611       -17.03960         7.74609
   C      -19.44096       -15.71562         7.40906
   C      -18.39032       -14.84346         7.76052
   N      -17.58966       -14.07299         8.04687
   C      -20.46786       -15.03030         6.72442
   N      -21.27436       -14.41960         6.18385
   C      -23.90556       -18.59147         5.93390
   N      -24.80363       -18.50244         5.22950
   C      -23.77563       -20.71000         7.77235
   N      -24.61846       -21.48281         7.83590
   H       -0.04989        -4.71927       -14.95536
   H        1.07694        -4.02324       -10.14701
   H       -3.68466        -7.70437       -12.05706
   H       -1.70141        -6.38010        -7.08707
   H       -1.12880        -5.97811        -5.50481
   H       -5.34938        -8.88214       -10.43342
   H       -4.85287        -8.39152        -4.06311
   H       -7.09929        -9.84958        -5.57730
   H       -8.95355       -10.55744        -4.41284
   H      -12.50059       -11.55148        -2.50585
   H      -11.10050       -10.67948        -5.02328
   H      -11.72140        -9.44311        -3.91112
   H      -13.35206       -11.60927        -4.99691
   H      -13.44184       -10.02133        -5.39386
   H      -10.06787       -12.70028        -3.93425
   H      -11.75249       -13.19410        -4.22608
   H      -10.44138       -13.38533        -1.62741
   H      -10.81526       -14.63677        -2.62162
   H      -12.84933       -11.22711        -0.36523
   H      -12.68984        -9.54636         1.53521
   H      -10.73052        -9.75641         3.15390
   H       -8.70573        -9.41655         1.81032
   H       -6.92840        -9.07157        -0.10019
   H       -5.68772        -8.87779        -2.19963
   H      -13.75529       -11.68624         1.95601
   H      -11.24475       -12.02600         3.67438
   H      -16.48591       -13.82508         2.71796
   H      -18.14548       -14.29938         2.53125
   H      -11.74536       -13.79051         5.71701
   H      -17.36424       -16.79096         6.26182
   H      -15.27888       -16.84927         8.51724
   H      -16.85694       -18.36549         9.57356
   H      -21.54545       -20.72872         9.24729
   H      -21.84390       -16.94102         6.00924
*
