# ORCA input file
# SCF done       -190.123084924546          0.000960006540
! CAM-B3LYP def2-SVP def2/J RIJCOSX Grid4 TightSCF
%maxcore 5000
%tddft
    Mode sTDDFT
    Ethresh 5.0
    maxcore 5000
end

%pal
  nprocs 6
  end
* xyz 0 1
   C       -2.15483         1.60596         1.78264
   C       -1.10563         1.72439         2.63172
   C       -0.18289         0.66146         2.50474
   C       -0.53218        -0.24153         1.54784
   S       -2.04302         0.19228         0.80921
   C        0.14974        -1.50148         1.23255
   C        1.27065        -1.60049         0.39397
   C        1.82461        -0.51335        -0.43659
   O        2.93011        -0.58501        -0.93184
   C        0.98407         0.69393        -0.70963
   C        1.11212         1.85443        -0.01687
   S        0.13409         3.12164        -0.65313
   C       -0.39954         2.10966        -1.91612
   C        0.11626         0.84271        -1.83822
   C       -0.14451        -0.15417        -2.89273
   O       -0.47436         0.18021        -4.01081
   C        0.00633        -1.59313        -2.52709
   C        0.99575        -2.36681        -3.12132
   C        1.06815        -3.72110        -2.84946
   C        0.13538        -4.31366        -2.01511
   C       -0.86244        -3.54872        -1.43480
   C       -0.92134        -2.18890        -1.67941
   C        1.91709        -2.83607         0.28569
   C        1.44361        -3.95566         0.92619
   C        0.29254        -3.88139         1.71259
   C       -0.32117        -2.64150         1.86863
   C       -0.26248        -5.08107         2.34360
   C       -0.30141        -6.26011         1.64981
   C       -0.85371        -7.41592         2.24579
   C       -1.01748        -8.70192         1.75997
   C       -0.64405        -9.18263         0.39573
   C        0.44850       -10.26491         0.44949
   N        1.16733       -10.28822        -0.81169
   C       -1.88750        -9.65331        -0.37891
   N       -1.57292        -9.86503        -1.78561
   C       -1.61641        -9.47340         2.82211
   C       -1.95967       -10.77347         2.91052
   C       -2.58639       -11.33506         4.13471
   C       -2.72720       -10.37989         5.26763
   C       -2.37922        -9.08255         5.17093
   C       -1.82046        -8.58001         3.97376
   C       -1.35278        -7.33221         3.61079
   C       -1.29265        -6.09953         4.29985
   C       -0.77342        -5.00984         3.67816
   C       -1.90810       -12.62674         4.51140
   C       -1.08223       -12.77187         5.54269
   C       -0.49270       -14.05272         5.92021
   C       -1.21655       -15.24984         5.79257
   C       -2.66092       -15.26218         5.45411
   O       -3.14614       -15.98527         4.60796
   C       -3.49596       -14.36328         6.28228
   C       -3.20720       -13.97139         7.55889
   S       -4.40749       -12.94452         8.21567
   C       -5.31625       -13.01607         6.75174
   C       -4.73574       -13.81830         5.82500
   C       -5.25090       -14.04594         4.43991
   O       -5.02957       -13.23520         3.56269
   C       -6.01836       -15.28253         4.22587
   C       -6.39423       -15.61641         2.92404
   C       -7.10586       -16.77344         2.68010
   C       -7.45247       -17.60601         3.73284
   C       -7.08622       -17.27913         5.02976
   C       -6.37092       -16.12473         5.28009
   C       -0.58355       -16.46379         6.04298
   C        0.72383       -16.49975         6.47448
   C        1.44671       -15.31653         6.66181
   C        0.81988       -14.10432         6.37187
   C        2.81384       -15.35719         7.13558
   C        3.71568       -14.33323         7.26618
   C        4.96514       -14.74646         7.76523
   C        5.01291       -16.08071         8.01637
   S        3.53431       -16.86185         7.64117
   H       -2.99462         2.25974         1.65830
   H       -0.98769         2.53595         3.32706
   H        0.71072         0.56800         3.09646
   H        1.71736         2.03795         0.84834
   H       -1.07753         2.47398        -2.66238
   H        1.70746        -1.90039        -3.78571
   H        1.84589        -4.31812        -3.30198
   H        0.18374        -5.37559        -1.82342
   H       -1.59378        -4.00941        -0.78713
   H       -1.70288        -1.58945        -1.23506
   H        2.79871        -2.88639        -0.33574
   H        1.96468        -4.89596         0.82902
   H       -1.20457        -2.55845         2.48588
   H        0.06732        -6.30348         0.63570
   H       -0.21061        -8.34273        -0.15662
   H       -0.00731       -11.23403         0.71141
   H        1.16310       -10.01014         1.24037
   H        0.49769       -10.45066        -1.55988
   H        1.84407       -11.04416        -0.81822
   H       -2.68942        -8.91030        -0.22611
   H       -2.24061       -10.60543         0.02452
   H       -1.31423        -8.98326        -2.21813
   H       -2.38608       -10.22170        -2.27677
   H       -1.79726       -11.46980         2.10073
   H       -3.60703       -11.64300         3.83078
   H       -3.15269       -10.78025         6.17613
   H       -2.51361        -8.41121         6.00740
   H       -1.66012        -6.03667         5.31402
   H       -0.70685        -4.06568         4.19866
   H       -2.12673       -13.46559         3.86408
   H       -0.79632       -11.91156         6.13389
   H       -2.35678       -14.24569         8.15131
   H       -6.23507       -12.47035         6.66907
   H       -6.10950       -14.95484         2.11968
   H       -7.39075       -17.03054         1.67078
   H       -8.00809       -18.51260         3.54354
   H       -7.35901       -17.93064         5.84684
   H       -6.08649       -15.87446         6.29162
   H       -1.14414       -17.37806         5.91649
   H        1.19776       -17.44857         6.67742
   H        1.36155       -13.17756         6.48131
   H        3.50304       -13.31239         7.00616
   H        5.79197       -14.07909         7.93031
   H        5.83029       -16.65999         8.39749
*
