# ORCA input file
# SCF done       -215.602434555812          0.000286682062
! CAM-B3LYP def2-SVP def2/J RIJCOSX Grid4 TightSCF
%maxcore 5000
%tddft
    Mode sTDDFT
    Ethresh 5.0
    maxcore 5000
end

%pal
  nprocs 6
  end
* xyz 0 1
   C       -2.23931        -2.32381       -10.21565
   C       -2.72391        -1.28425       -10.99566
   C       -3.53588        -0.29978       -10.45175
   C       -3.88066        -0.32206        -9.10829
   C       -3.40244        -1.35482        -8.31993
   C       -2.58280        -2.36355        -8.87333
   C       -2.24993        -3.32342        -7.82870
   C       -1.36978        -4.36404        -7.95466
   C       -0.65034        -4.65237        -9.13498
   N       -0.03046        -4.94656       -10.05506
   C       -1.00758        -5.27479        -6.93911
   N       -0.65385        -6.05357        -6.17257
   C       -3.02679        -2.94815        -6.64808
   C       -3.57057        -1.62659        -6.90029
   C       -3.94738        -0.70598        -5.95714
   C       -3.82260        -0.90560        -4.56972
   N       -3.72536        -1.03155        -3.43255
   C       -4.42351         0.58626        -6.25961
   N       -4.83598         1.64211        -6.44009
   C       -3.22780        -3.78771        -5.58472
   C       -4.20918        -3.76540        -4.57282
   S       -3.93059        -4.70300        -3.13307
   C       -5.45296        -4.27460        -2.45047
   C       -6.15982        -3.44614        -3.31576
   C       -5.46976        -3.16576        -4.51828
   O       -5.93166        -2.46466        -5.56532
   C       -7.47247        -2.82177        -2.97808
   F       -7.59576        -2.47193        -1.69620
   F       -7.70398        -1.69612        -3.68939
   F       -8.53158        -3.61993        -3.25826
   C       -5.80859        -4.77370        -1.14343
   C       -7.10521        -5.08622        -0.81041
   C       -7.40847        -5.52021         0.49476
   C       -8.62744        -5.81956         1.08749
   C       -9.95390        -5.82393         0.41143
   C      -10.43235        -7.25928         0.09011
   N      -10.40233        -8.11673         1.26665
   C      -11.05244        -5.07348         1.18397
   N      -12.10607        -4.69970         0.25510
   C       -8.34275        -6.13987         2.46764
   C       -9.15547        -6.45078         3.49447
   C       -8.62703        -6.69603         4.86123
   C       -7.12917        -6.69028         4.96671
   C       -6.33335        -6.36863         3.93172
   C       -6.88885        -6.05761         2.66666
   C       -6.33249        -5.66780         1.46617
   C       -5.00060        -5.40436         1.06922
   C       -4.75242        -4.97373        -0.19158
   C       -9.18888        -7.93475         5.50620
   C       -9.87893        -8.87750         4.85960
   C      -10.43781       -10.04784         5.48770
   S      -11.90698       -10.73085         4.88345
   C      -12.00831       -11.86144         6.19203
   C      -10.88594       -11.77046         6.99660
   C      -10.00018       -10.73843         6.60341
   O       -8.85438       -10.52365         7.27362
   C      -10.50634       -12.69511         8.10757
   F      -11.24095       -13.82392         8.13438
   F       -9.23402       -13.09600         8.01218
   F      -10.64137       -12.14106         9.32682
   C      -13.15871       -12.70810         6.26036
   C      -13.85445       -13.07221         7.36547
   C      -14.80415       -14.18805         7.41303
   C      -15.46677       -14.74958         6.35918
   C      -15.38201       -14.30913         5.02015
   N      -15.36439       -13.99286         3.91697
   C      -16.37670       -15.82332         6.48210
   N      -17.12804       -16.68949         6.51369
   C      -14.91635       -14.57434         8.81056
   C      -14.23794       -13.62263         9.60673
   C      -14.16643       -13.77177        10.98199
   C      -14.78273       -14.87157        11.55900
   C      -15.46089       -15.80071        10.78120
   C      -15.53449       -15.66499         9.40328
   C      -13.71487       -12.58168         8.73942
   C      -13.38714       -11.31419         9.12475
   C      -13.39085       -10.87932        10.46992
   N      -13.39083       -10.46503        11.53895
   C      -13.10289       -10.25030         8.24382
   N      -12.91018        -9.33108         7.58388
   H       -1.61465        -3.08209       -10.65788
   H       -2.46616        -1.24616       -12.04301
   H       -3.90710         0.49515       -11.08039
   H       -4.51788         0.44455        -8.69858
   H       -2.56946        -4.64437        -5.51535
   H       -6.81444        -2.10453        -5.40747
   H       -7.89611        -5.02922        -1.54023
   H       -9.84288        -5.31594        -0.55211
   H       -9.81777        -7.65318        -0.73409
   H      -11.46502        -7.17846        -0.25382
   H       -9.44841        -8.41363         1.44813
   H      -10.96141        -8.94650         1.10230
   H      -10.60327        -4.21339         1.70866
   H      -11.49934        -5.74022         1.92248
   H      -11.76681        -4.00930        -0.40705
   H      -12.89056        -4.29267         0.75145
   H      -10.22442        -6.51349         3.37255
   H       -8.98837        -5.85127         5.47659
   H       -6.71814        -6.93219         5.93519
   H       -5.25984        -6.34919         4.05068
   H       -4.19555        -5.53593         1.77629
   H       -3.74497        -4.74651        -0.50592
   H       -9.01071        -8.00233         6.57127
   H      -10.11637        -8.75616         3.81141
   H       -8.28638        -9.91563         6.78294
   H      -13.48460       -13.09217         5.30246
   H      -13.63017       -13.06336        11.59215
   H      -14.73011       -15.00710        12.62830
   H      -15.93366       -16.64804        11.25366
   H      -16.05462       -16.40224         8.81404
*
