# ORCA input file
# SCF done       -206.983248134272          0.000760002308
! CAM-B3LYP def2-SVP def2/J RIJCOSX Grid4 TightSCF
%maxcore 5000
%tddft
    Mode sTDDFT
    Ethresh 5.0
    maxcore 5000
end

%pal
  nprocs 6
  end
* xyz 0 1
   C        4.50550        -4.77663        -3.27101
   C        4.23007        -4.80086        -1.92605
   C        5.21567        -4.85814        -0.91810
   N        5.96348        -4.90740        -0.04861
   C        2.94389        -4.77428        -1.34943
   N        1.93263        -4.75386        -0.80273
   C        5.84281        -4.81162        -3.86125
   C        5.72325        -4.77869        -5.26240
   C        6.82691        -4.80048        -6.08914
   C        8.08684        -4.85556        -5.50465
   C        8.21636        -4.88768        -4.11205
   C        7.09979        -4.86647        -3.28240
  Cl        9.77826        -4.95413        -3.40192
  Cl        9.48644        -4.88345        -6.49836
   C        4.29366        -4.71847        -5.63117
   O        3.83512        -4.68132        -6.75695
   C        3.55606        -4.71271        -4.36241
   C        2.19219        -4.64555        -4.22792
   C        1.17931        -4.56161        -5.18831
   S        1.35167        -4.52888        -6.93493
   C       -0.35482        -4.39197        -7.15023
   C       -1.02205        -4.37609        -5.97306
   C       -0.18060        -4.47315        -4.84357
   C       -0.84097        -4.46087        -3.58313
   C       -2.19016        -4.33399        -3.63480
   S       -2.70846        -4.21853        -5.37672
   O       -3.50453        -5.35486        -5.76398
   O       -3.22721        -2.91780        -5.70019
   C       -3.16317        -4.31969        -2.59811
   C       -4.48256        -4.07517        -2.93523
   C       -5.47412        -4.09943        -1.94432
   C       -6.85412        -3.93111        -2.02749
   C       -7.71982        -3.72572        -3.21903
   C       -7.65070        -2.25453        -3.68198
   N       -8.22570        -1.39549        -2.66121
   C       -7.39933        -4.69578        -4.39130
   N       -6.33302        -4.21111        -5.23399
   C       -7.35538        -3.99558        -0.67361
   C       -8.59144        -3.79577        -0.18261
   C       -8.87000        -3.86891         1.27906
   C       -7.69836        -4.29671         2.11587
   C       -6.46360        -4.45993         1.60851
   C       -6.22846        -4.27879         0.22340
   C       -5.09108        -4.33340        -0.55655
   C       -3.73036        -4.56017        -0.24073
   C       -2.79996        -4.55952        -1.22778
   C      -10.05556        -4.76755         1.50531
   C      -10.91512        -4.65937         2.52188
   C      -12.09444        -5.47561         2.61346
   S      -12.76339        -6.01433         4.12171
   C      -14.05412        -6.86474         3.32787
   C      -13.97575        -6.72277         1.99272
   C      -12.87495        -5.92851         1.55916
   C      -12.82528        -5.65235         0.16524
   C      -13.80218        -6.23746        -0.57531
   S      -14.88861        -7.20780         0.51921
   O      -16.20844        -6.64964         0.53363
   O      -14.74367        -8.61310         0.27660
   C      -14.15065        -6.21477        -1.93409
   C      -13.55553        -5.61204        -3.01385
   C      -14.07443        -5.69122        -4.37438
   C      -15.22186        -6.30512        -4.79831
   C      -15.65774        -6.31004        -6.14271
   N      -16.07220        -6.35158        -7.21205
   C      -16.15805        -7.01301        -4.00991
   N      -16.98803        -7.60733        -3.48544
   C      -13.15194        -4.96576        -5.24596
   C      -12.11730        -4.43369        -4.46030
   C      -12.31447        -4.80663        -3.04732
   O      -11.56930        -4.49291        -2.13712
   C      -11.09447        -3.68605        -5.00790
   C      -11.09034        -3.47591        -6.37963
   C      -12.11330        -4.00587        -7.17402
   C      -13.14897        -4.74806        -6.61469
  Cl      -12.10040        -3.74040        -8.87020
  Cl       -9.82246        -2.56743        -7.09998
   H        6.71225        -4.77496        -7.16120
   H        7.24046        -4.89237        -2.21438
   H        1.81149        -4.64770        -3.21563
   H       -0.76619        -4.33041        -8.13854
   H       -0.28939        -4.54096        -2.65898
   H       -4.76203        -3.86748        -3.95704
   H       -8.74934        -3.93051        -2.90422
   H       -8.15822        -2.16762        -4.65649
   H       -6.60467        -1.97805        -3.81805
   H       -9.23597        -1.48915        -2.63725
   H       -8.00601        -0.42441        -2.84556
   H       -8.33645        -4.85762        -4.94928
   H       -7.09982        -5.65460        -3.96254
   H       -6.65232        -3.56608        -5.94257
   H       -5.78924        -4.94603        -5.66570
   H       -9.43748        -3.58414        -0.82043
   H       -9.15179        -2.85696         1.61313
   H       -7.89988        -4.43965         3.16619
   H       -5.63871        -4.73464         2.24950
   H       -3.44429        -4.73245         0.78625
   H       -1.76276        -4.73741        -0.99303
   H      -10.17647        -5.56114         0.78288
   H      -10.75352        -3.94258         3.31616
   H      -14.77262        -7.40101         3.91382
   H      -12.08372        -4.99447        -0.25825
   H      -15.05171        -6.78627        -2.12583
   H      -10.31661        -3.27851        -4.38383
   H      -13.91828        -5.13629        -7.26092
*
