# ORCA input file
# SCF done       -216.327369301090          0.000888127182
! CAM-B3LYP def2-SVP def2/J RIJCOSX Grid4 TightSCF
%maxcore 5000
%tddft
    Mode sTDDFT
    Ethresh 5.0
    maxcore 5000
end

%pal
  nprocs 6
  end
* xyz 0 1
   C       -1.48158        -0.06739         4.37053
   C       -1.71328         0.16110         3.04089
   C       -2.43270        -0.72159         2.20990
   N       -3.02525        -1.40018         1.49854
   C       -1.19068         1.26136         2.33075
   N       -0.73899         2.09782         1.68736
   C       -1.77147        -1.30497         5.08374
   C       -0.96937        -1.34841         6.26230
   C       -1.00536        -2.41480         7.11391
   C       -1.86687        -3.49761         6.82736
   C       -2.68256        -3.45247         5.65958
   C       -2.61925        -2.33940         4.79079
   C       -3.54393        -4.53559         5.39034
   C       -3.59680        -5.61368         6.23101
   C       -2.79231        -5.65813         7.37961
   C       -1.94564        -4.62324         7.67097
   C       -0.18472        -0.10467         6.36593
   O        0.64484         0.19050         7.19448
   C       -0.68136         0.76090         5.25574
   C       -0.44831         2.09253         5.27634
   C       -1.12872         3.12282         4.53059
   C       -0.42101         4.26414         4.12980
   C       -1.06467         5.23013         3.39649
   C       -2.43188         5.10665         3.09958
   C       -3.15469         4.00711         3.54086
   C       -2.49612         3.01974         4.24209
   C       -2.83584         6.25427         2.31741
   C       -1.71736         7.08594         2.12830
   C       -0.51254         6.52877         2.84971
   C       -0.11301         7.40136         4.06390
   C        0.28592         8.83724         3.74998
   C        0.67308         6.29288         1.90185
   C        0.32427         5.34697         0.75842
   C       -1.82027         8.21318         1.34887
   C       -3.05845         8.55146         0.78450
   C       -4.17432         7.73995         1.01694
   C       -4.06518         6.58700         1.76896
   C       -3.16319         9.76802         0.00588
   O       -2.20724        10.72503         0.16588
   C       -2.51258        11.76112        -0.59382
   C       -3.66534        11.51449        -1.30584
   N       -4.18990        12.38689        -2.28668
   O       -3.72170        13.50927        -2.32589
   O       -5.04274        11.96325        -3.04109
   C       -4.10595        10.20369        -0.91652
   N       -5.18231         9.49886        -1.38848
   C       -6.43710        10.01199        -1.66700
   C       -6.85169        11.22601        -1.11113
   C       -8.11264        11.69359        -1.39122
   C       -8.96516        10.97225        -2.24706
   C       -8.56478         9.75135        -2.77403
   C       -7.30793         9.27234        -2.47105
   C      -10.17891        11.73055        -2.43180
   C      -10.07841        12.92153        -1.69042
   C       -8.77472        12.96641        -0.92334
   C       -9.13713        12.92618         0.58041
   C       -7.97247        12.73567         1.54333
   C       -7.94598        14.21200        -1.27307
   C       -7.63865        14.30715        -2.76311
   C      -11.09311        13.84235        -1.68145
   C      -12.25753        13.59652        -2.43194
   C      -12.33636        12.40251        -3.18330
   C      -11.31960        11.47571        -3.18702
   C      -13.39548        14.45925        -2.49712
   C      -13.75187        15.63736        -1.90105
   C      -15.03636        16.28045        -2.17319
   C      -16.03510        15.84262        -3.00528
   C      -17.25468        16.52582        -3.20243
   N      -18.27321        17.01280        -3.41316
   C      -16.05091        14.67109        -3.79226
   N      -16.18523        13.75383        -4.47241
   C      -15.10792        17.50684        -1.38704
   C      -13.90783        17.62701        -0.63645
   C      -13.02784        16.48012        -0.91682
   O      -11.93897        16.30897        -0.40501
   C      -13.67585        18.67795         0.20291
   C      -14.65933        19.68274         0.33410
   C      -15.86692        19.57223        -0.41312
   C      -16.07553        18.47118        -1.27497
   C      -16.84447        20.57881        -0.27449
   C      -16.64036        21.64301         0.56076
   C      -15.44991        21.75090         1.29530
   C      -14.48050        20.79158         1.18426
   H       -0.38467        -2.43252         7.99740
   H       -3.25314        -2.32533         3.91776
   H       -4.15826        -4.49817         4.50290
   H       -4.25860        -6.43901         6.01526
   H       -2.84745        -6.51621         8.03254
   H       -1.32466        -4.65182         8.55406
   H        0.30406         2.42418         5.98517
   H        0.63044         4.34262         4.36261
   H       -4.21104         3.92058         3.33601
   H       -3.04681         2.16437         4.60742
   H        0.71799         6.90328         4.56789
   H       -0.95767         7.41720         4.75819
   H       -0.55362         9.39516         3.34495
   H        1.11097         8.87499         3.04403
   H        0.60560         9.32833         4.66653
   H        1.50354         5.87807         2.47639
   H        0.99491         7.25056         1.48986
   H        0.02318         4.37316         1.13504
   H        1.18782         5.21263         0.11137
   H       -0.49109         5.75123         0.16213
   H       -0.96658         8.83978         1.14581
   H       -5.13839         8.03021         0.63044
   H       -4.92821         5.95894         1.92949
   H       -1.87154        12.62050        -0.58953
   H       -5.04851         8.50824        -1.52945
   H       -6.18371        11.77825        -0.46843
   H       -9.22055         9.18808        -3.42032
   H       -6.97397         8.32734        -2.87507
   H       -9.85113        12.11199         0.73248
   H       -9.64812        13.86125         0.81724
   H       -7.21341        13.50089         1.40463
   H       -7.51780        11.75642         1.41647
   H       -8.33716        12.80668         2.56595
   H       -7.00648        14.18809        -0.71875
   H       -8.50125        15.09704        -0.95628
   H       -7.05591        15.20260        -2.96534
   H       -8.55734        14.35490        -3.34366
   H       -7.06637        13.44477        -3.09763
   H      -11.00636        14.74817        -1.10780
   H      -13.22644        12.21338        -3.76680
   H      -11.40667        10.56889        -3.76644
   H      -14.14797        14.06750        -3.17171
   H      -12.75236        18.74012         0.75949
   H      -17.00141        18.42284        -1.82463
   H      -17.75938        20.49156        -0.84214
   H      -17.39548        22.40843         0.66024
   H      -15.30530        22.59775         1.94960
   H      -13.56165        20.86867         1.74724
*
