# ORCA input file
# SCF done       -207.346045474353          0.000729263621
! CAM-B3LYP def2-SVP def2/J RIJCOSX Grid4 TightSCF
%maxcore 5000
%tddft
    Mode sTDDFT
    Ethresh 5.0
    maxcore 5000
end

%pal
  nprocs 6
  end
* xyz 0 1
   C       -2.28544        -0.76133         0.81941
   S       -3.35734        -1.72081        -0.08743
   C       -2.46688        -1.48456        -1.55564
   C       -1.37122        -0.65607        -1.32995
   C       -1.26881        -0.24372         0.04394
   C       -0.19537         0.58293         0.44356
   C        0.69915         1.01650        -0.49215
   N        1.87829         1.72521        -0.02279
   O        1.72156         2.49347         0.89500
   O        2.92776         1.42845        -0.53798
   C        0.54030         0.68391        -1.86770
   N        1.33234         1.34723        -2.88385
   O        1.67845         2.48055        -2.64049
   O        1.51443         0.75470        -3.91874
   C       -0.46530        -0.14636        -2.27926
   C       -2.86120        -2.13132        -2.77029
   C       -2.09020        -2.92495        -3.60527
   N       -0.75458        -3.33434        -3.42128
   O       -0.30205        -4.12380        -4.22928
   O       -0.14553        -2.91194        -2.45167
   C       -2.92112        -3.44984        -4.65839
   C       -4.19454        -3.03300        -4.45169
   C       -4.22335        -2.18608        -3.28781
   C       -5.28153        -1.40270        -2.85459
   C       -5.17485        -0.12312        -2.24638
   C       -6.40534         0.47882        -2.25054
   C       -7.36175        -0.42001        -2.79399
   N       -8.72751        -0.11302        -2.87763
   O       -9.49240        -0.94214        -3.35244
   O       -9.07979         0.98105        -2.47198
   C       -6.71631        -1.62098        -3.14326
   C       -7.34970        -2.80292        -3.51911
   C       -6.82782        -4.07989        -3.47269
   C       -7.53265        -5.19357        -3.91664
   S       -9.11556        -5.08624        -4.66795
   C       -9.26123        -6.81246        -4.91133
   C       -8.10303        -7.45799        -4.42549
   C       -7.15932        -6.54660        -3.88464
   N       -6.08479        -7.24408        -3.45130
   C       -6.31160        -8.58017        -3.69613
   C       -5.37689        -9.56876        -3.35184
   N       -4.61862       -10.38030        -3.06837
   C       -7.54627        -8.74777        -4.29497
   C      -10.41794        -7.29720        -5.52157
   C      -10.69744        -8.61733        -5.77786
   C      -11.86810        -9.07028        -6.40601
   C      -12.18690       -10.40163        -6.66031
   C      -13.43864       -10.47027        -7.31061
   C      -13.89879        -9.07575        -7.45766
   C      -12.96222        -8.25608        -6.91482
   C      -15.09231        -8.64172        -8.04754
   N      -16.06188        -8.25221        -8.52453
   C      -14.12331       -11.59944        -7.72704
   C      -15.37364       -11.66060        -8.38291
   C      -15.71694       -12.98563        -8.60182
   C      -14.64128       -13.81283        -8.07011
   C      -13.68500       -13.00003        -7.55235
   C      -12.49423       -13.43184        -6.95740
   N      -11.52271       -13.80844        -6.47402
   C      -16.90158       -13.42418        -9.22899
   C      -17.27400       -14.72526        -9.39582
   C      -18.46630       -15.13036       -10.02801
   S      -19.57815       -13.99776       -10.73725
   C      -20.63984       -15.22139       -11.25013
   C      -20.19586       -16.48224       -10.90379
   C      -18.94401       -16.44199       -10.19739
   C      -18.37493       -17.63978        -9.74170
   C      -19.00473       -18.83158        -9.99691
   N      -18.47948       -20.02282        -9.36338
   O      -17.28624       -20.06312        -9.17680
   O      -19.28659       -20.84998        -9.01040
   C      -20.21347       -18.87447       -10.74280
   N      -20.77740       -20.13984       -11.18676
   O      -19.99047       -20.96481       -11.58251
   O      -21.97967       -20.22683       -11.19976
   C      -20.80851       -17.72447       -11.17811
   H       -2.44261        -0.62511         1.87064
   H       -0.06754         0.85514         1.48019
   H       -0.57432        -0.36766        -3.32987
   H       -2.54591        -4.06373        -5.45430
   H       -5.03294        -3.19928        -5.09939
   H       -4.25378         0.34676        -1.96139
   H       -6.64268         1.47059        -1.91397
   H       -8.39095        -2.70279        -3.80596
   H       -5.84761        -4.25068        -3.04774
   H       -5.24887        -6.87275        -3.02987
   H       -7.96221        -9.68969        -4.58851
   H      -11.14212        -6.54603        -5.80546
   H       -9.98622        -9.37523        -5.48437
   H      -11.57767       -11.24573        -6.40286
   H      -13.01965        -7.18495        -6.87168
   H      -15.96649       -10.81229        -8.66278
   H      -14.60751       -14.88575        -8.09211
   H      -17.56049       -12.64474        -9.59289
   H      -16.63809       -15.51637        -9.02565
   H      -21.53893       -14.96918       -11.77627
   H      -17.46157       -17.64861        -9.16684
   H      -21.72602       -17.77055       -11.74447
*
