# ORCA input file
# SCF done       -161.848484223758          0.000741399006
! CAM-B3LYP def2-SVP def2/J RIJCOSX Grid4 TightSCF
%maxcore 5000
%tddft
    Mode sTDDFT
    Ethresh 5.0
    maxcore 5000
end

%pal
  nprocs 6
  end
* xyz 0 1
   C       -0.67030        -0.85806        -9.46463
   C       -0.19737        -1.47940        -8.33518
   C       -1.19622        -2.17195        -7.66037
   C       -2.43967        -2.09403        -8.28553
   S       -2.32067        -1.15782        -9.75846
   C       -3.62529        -2.71429        -7.83422
   C       -4.71357        -3.20698        -8.55038
   N       -5.03025        -3.01501        -9.89081
   O       -4.45781        -2.11572       -10.50479
   O       -5.87370        -3.73850       -10.39329
   C       -5.49810        -4.05209        -7.69325
   C       -4.93239        -4.08137        -6.45766
   C       -3.80240        -3.20750        -6.44966
   C       -3.16943        -2.71051        -5.32516
   C       -2.61897        -1.39959        -5.17160
   C       -2.33174        -1.20250        -3.85662
   C       -2.63838        -2.39051        -3.11752
   N       -2.34703        -2.45178        -1.74778
   O       -2.77520        -3.38005        -1.07393
   O       -1.66815        -1.55006        -1.28328
   C       -3.14336        -3.35927        -4.00118
   C       -3.36929        -4.74392        -3.89804
   C       -3.58010        -5.49558        -2.77035
   C       -3.74005        -6.88818        -2.83924
   N       -3.98169        -7.68340        -1.74596
   C       -4.07384        -7.24912        -0.37057
   C       -2.70614        -6.93754         0.22990
   C       -4.09953        -9.04127        -2.09056
   O       -4.31836        -9.93141        -1.29838
   C       -3.91665        -9.05291        -3.52948
   C       -3.70069        -7.73948        -3.96393
   C       -3.52868        -7.78376        -5.40232
   O       -3.32549        -6.90982        -6.22248
   N       -3.65829        -9.14443        -5.73990
   C       -3.51289        -9.55208        -7.11754
   C       -2.10361       -10.05917        -7.41425
   C       -3.88050        -9.92635        -4.63005
   C       -4.06170       -11.31330        -4.48709
   C       -3.99426       -12.31707        -5.41328
   C       -4.19539       -13.67772        -5.10139
   C       -4.07982       -14.73120        -5.99851
   C       -4.33497       -15.95151        -5.32822
   C       -4.63539       -15.59144        -3.93089
   C       -4.54667       -14.24059        -3.80756
   C       -4.96076       -16.46774        -2.88941
   N       -5.23059       -17.16209        -2.01464
   C       -4.29827       -17.23123        -5.85023
   C       -4.53533       -18.45104        -5.17606
   C       -4.38072       -19.50616        -6.05725
   C       -4.03323       -18.94628        -7.35711
   C       -3.98089       -17.59388        -7.24859
   C       -3.67431       -16.71703        -8.29375
   N       -3.41925       -16.02110        -9.17217
   C       -4.53031       -20.87417        -5.73047
   C       -4.36704       -21.90742        -6.59887
   C       -4.51130       -23.27673        -6.25926
   C       -4.82899       -23.86790        -5.05134
   C       -4.87347       -25.26519        -5.11658
   C       -4.59291       -25.74647        -6.36358
   S       -4.26787       -24.49792        -7.48465
   H       -0.10659        -0.26161       -10.15548
   H        0.82637        -1.43476        -8.00944
   H       -1.02599        -2.75609        -6.77503
   H       -6.39384        -4.54678        -8.01794
   H       -5.33999        -4.56451        -5.59211
   H       -2.55283        -0.66740        -5.95197
   H       -1.94454        -0.31127        -3.40001
   H       -3.37086        -5.26586        -4.84680
   H       -3.63727        -5.02018        -1.80491
   H       -4.53521        -8.07926         0.17178
   H       -4.72718        -6.37526        -0.30706
   H       -2.04631        -7.79569         0.12569
   H       -2.81964        -6.71297         1.28638
   H       -2.25076        -6.07846        -0.25536
   H       -3.70699        -8.65794        -7.71777
   H       -4.27037       -10.30182        -7.35609
   H       -1.38517        -9.25721        -7.26311
   H       -2.04161       -10.38989        -8.44718
   H       -1.83587       -10.88795        -6.76250
   H       -4.26772       -11.58594        -3.45990
   H       -3.76039       -12.11291        -6.44718
   H       -3.82862       -14.64005        -7.03732
   H       -4.71227       -13.68227        -2.90552
   H       -4.79224       -18.54020        -4.13904
   H       -3.84887       -19.51100        -8.25171
   H       -4.79158       -21.08160        -4.70180
   H       -4.10671       -21.70482        -7.62853
   H       -5.02166       -23.31059        -4.15321
   H       -5.10328       -25.89693        -4.27743
   H       -4.55909       -26.76862        -6.68514
*
