# ORCA input file
# SCF done       -215.920014906436          0.000295638912
! CAM-B3LYP def2-SVP def2/J RIJCOSX Grid4 TightSCF
%maxcore 5000
%tddft
    Mode sTDDFT
    Ethresh 5.0
    maxcore 5000
end

%pal
  nprocs 6
  end
* xyz 0 2
   C       -1.45885        -4.26849         5.51296
   O       -1.97361        -5.30502         5.14655
   C       -0.51415        -4.10002         6.63997
   C       -0.36951        -2.73776         6.93452
   C        0.50544        -2.31827         7.91761
   C        1.24532        -3.28089         8.59702
   C        1.10218        -4.64407         8.30127
   C        0.20654        -5.06081         7.32146
  Cl        2.03827        -5.81273         9.13220
  Cl        2.34916        -2.79144         9.81157
   C       -1.21802        -1.93007         6.01750
   O       -1.39881        -0.73743         6.04189
   C       -1.71625        -2.90227         5.01662
   C       -2.24890        -2.56842         3.80779
   C       -2.26316        -3.47002         2.71632
   C       -3.24680        -3.71202         1.75779
   N       -4.45961        -3.02063         1.62132
   O       -4.68741        -2.10232         2.39254
   O       -5.20999        -3.36749         0.72469
   C       -2.86808        -4.84348         0.98078
   C       -1.66546        -5.31465         1.45241
   C       -1.22525        -4.47494         2.50015
   C        0.01124        -4.46614         3.16983
   C        0.74486        -3.31757         3.53403
   C        1.88133        -3.70795         4.20939
   C        1.87427        -5.11144         4.35009
   N        2.93027        -5.78990         4.97504
   O        3.04364        -6.99459         4.80833
   O        3.69936        -5.12012         5.64681
   C        0.71244        -5.63015         3.71818
   C        0.03328        -6.84208         3.82445
   C        0.29602        -7.86929         4.71136
   C       -0.46436        -9.01233         4.93624
   N       -1.50453        -9.56834         4.22777
   C       -2.14100        -9.08481         3.02338
   C       -3.24092        -8.07019         3.33198
   C       -1.97052       -10.75727         4.81786
   O       -2.86154       -11.43900         4.36348
   C       -1.14230       -10.92187         6.00209
   C       -0.24433        -9.87075         6.04990
   C        0.55066       -10.01421         7.25949
   O        1.41342        -9.32406         7.74733
   N        0.08232       -11.21234         7.84475
   C        0.64323       -11.65168         9.10107
   C       -0.24787       -11.28016        10.28367
   C       -0.94502       -11.77167         7.12182
   C       -1.71284       -12.91663         7.31805
   C       -1.67516       -13.85833         8.32795
   C       -2.53398       -14.95512         8.39170
   C       -2.54734       -15.92078         9.41320
   C       -3.55850       -16.84664         9.16703
   C       -4.20352       -16.43239         7.90248
   C       -3.58444       -15.30983         7.45108
   C       -5.25910       -17.07854         7.25269
   N       -6.12434       -17.59903         6.70204
   C       -3.93455       -17.94940         9.94747
   C       -5.02004       -18.81033         9.72062
   C       -5.06747       -19.76642        10.74037
   C       -3.97070       -19.50570        11.63081
   C       -3.28556       -18.41383        11.16874
   C       -2.15337       -17.86421        11.77637
   N       -1.22523       -17.43154        12.29887
   C       -6.01213       -20.79921        10.91384
   C       -7.06159       -21.00388        10.08910
  Cl       -8.17517       -22.29817        10.37754
   C       -7.30158       -23.78799        10.02142
   C       -7.08514       -24.68003        11.05643
   C       -6.38676       -25.83826        10.76305
   C       -5.91496       -26.08296         9.46290
   C       -6.13319       -25.17708         8.43858
   C       -6.83835       -24.01211         8.71792
  Cl       -7.14465       -22.86416         7.47626
   C       -5.20923       -27.39067         9.41725
   O       -4.69169       -27.90530         8.45740
   C       -5.28284       -27.92681        10.80585
   C       -4.76689       -29.08570        11.21561
   C       -6.02365       -26.96133        11.66470
   O       -6.27949       -27.06103        12.83845
   H        0.62017        -1.27101         8.14903
   H        0.09432        -6.10967         7.09403
   H       -2.64662        -1.56902         3.66530
   H       -3.45164        -5.23704         0.17017
   H       -1.08962        -6.11168         1.02039
   H        0.49099        -2.31251         3.25527
   H        2.66723        -3.07313         4.57284
   H       -0.86653        -6.88833         3.23389
   H        1.15354        -7.79146         5.36656
   H       -2.58727        -9.96292         2.54583
   H       -1.38120        -8.67581         2.35455
   H       -4.04174        -8.55832         3.88188
   H       -3.64855        -7.67738         2.40460
   H       -2.87184        -7.24126         3.93168
   H        1.60240       -11.13393         9.19616
   H        0.83270       -12.72681         9.06042
   H       -0.33362       -10.19864        10.35395
   H        0.19003       -11.65348        11.20514
   H       -1.24606       -11.69861        10.17426
   H       -2.44881       -13.05399         6.53635
   H       -0.96412       -13.77376         9.13590
   H       -1.88720       -15.93136        10.25860
   H       -3.82950       -14.77647         6.55213
   H       -5.70382       -18.73398         8.90023
   H       -3.73732       -20.07554        12.51140
   H       -5.87096       -21.44933        11.76891
   H       -7.29145       -20.43276         9.21013
   H       -7.44910       -24.49560        12.05555
   H       -5.76838       -25.37662         7.44290
   H       -4.24212       -29.72997        10.52873
   H       -4.86341       -29.40235        12.24167
*
