# ORCA input file
# SCF done       -211.124029657158          0.000952896565
! CAM-B3LYP def2-SVP def2/J RIJCOSX Grid4 TightSCF
%maxcore 5000
%tddft
    Mode sTDDFT
    Ethresh 5.0
    maxcore 5000
end

%pal
  nprocs 6
  end
* xyz 0 1
   C        6.23580         4.40551        -3.23836
   C        7.29175         3.67866        -3.71525
   C        7.58899         2.36004        -3.31262
   N        7.87092         1.28797        -3.01638
   C        8.16270         4.14863        -4.72170
   N        8.85899         4.46873        -5.57593
   C        5.19386         3.93998        -2.33546
   C        4.16652         4.92758        -2.27809
   C        3.04734         4.75515        -1.51393
   C        2.90442         3.57094        -0.75739
   C        3.93192         2.58407        -0.80341
   C        5.07833         2.78729        -1.60510
   C        3.78110         1.41047        -0.03743
   C        2.66917         1.21792         0.73669
   C        1.65782         2.18925         0.78068
   C        1.77254         3.34022         0.04928
   C        4.53989         6.07830        -3.11265
   O        3.91277         7.10603        -3.27235
   C        5.89064         5.75535        -3.64632
   C        6.70416         6.68337        -4.20836
   C        6.24381         7.96617        -4.63600
   C        6.73862         9.20039        -4.25220
   N        7.81432         9.40220        -3.37206
   O        8.31017         8.41557        -2.84817
   O        8.18946        10.54497        -3.18543
   C        5.92840        10.24228        -4.81969
   C        4.92064         9.66010        -5.51830
   C        5.07546         8.22847        -5.46293
   C        4.40275         7.28868        -6.22373
   C        4.93617         6.08182        -6.74944
   C        4.08474         5.60106        -7.70928
   C        2.93671         6.44095        -7.78192
   N        1.85708         6.20621        -8.63357
   O        0.93400         7.01954        -8.65304
   O        1.88673         5.20718        -9.33233
   C        3.06736         7.46404        -6.82527
   C        2.05894         8.32697        -6.40856
   C        2.01299         9.00731        -5.20846
   C        0.99161         9.89231        -4.87825
   S        0.92166        10.60808        -3.27756
   C       -0.49127        11.56725        -3.62263
   C       -0.90662        11.33503        -4.94754
   C       -0.08067        10.40018        -5.63265
   N       -0.56309        10.24375        -6.88731
   C       -1.67803        11.04014        -7.02384
   C       -2.41460        11.10656        -8.21658
   N       -3.03030        11.18360        -9.18055
   C       -1.91917        11.72741        -5.85062
   C       -1.02462        12.39389        -2.61840
   C       -2.04938        13.26921        -2.81595
   C       -2.64650        14.10835        -1.83460
   C       -2.38707        14.06500        -0.45955
   N       -2.95886        14.83257         0.44352
   C       -3.85408        15.74696         0.08633
   C       -4.22297        15.90890        -1.28919
   C       -3.61784        15.07010        -2.25727
   N       -3.94861        15.17742        -3.55951
   C       -4.83215        16.08499        -3.88134
   C       -5.42362        16.92711        -2.91831
   N       -5.12842        16.83666        -1.64900
   C       -4.46014        16.57141         1.08374
   C       -4.23804        16.42469         2.41547
   C       -4.87712        17.26489         3.36002
   C       -4.76585        17.15533         4.71507
   C       -5.40376        18.00144         5.71035
   C       -6.16920        19.11433         5.47587
   C       -6.75394        19.90133         6.49142
   N       -7.25938        20.58473         7.26284
   C       -6.48317        19.65276         4.21004
   N       -6.79082        20.15730         3.22537
   C       -5.07131        17.46892         7.02652
   C       -4.22358        16.33632         6.86162
   C       -3.98696        16.10134         5.42757
   O       -3.30678        15.22593         4.93904
   C       -3.75182        15.62612         7.92809
   C       -4.11350        16.02210         9.23487
   C       -4.96100        17.15447         9.40911
   C       -5.43359        17.87039         8.28593
   C       -5.31651        17.54200        10.71727
   C       -4.85883        16.84507        11.80216
   C       -4.02580        15.72938        11.62943
   C       -3.66067        15.32687        10.37332
   H        2.28036         5.51505        -1.48445
   H        5.84463         2.02814        -1.61533
   H        4.56176         0.66518        -0.07547
   H        2.56289         0.31567         1.31981
   H        0.78775         2.02121         1.39746
   H        0.99719         4.09175         0.07997
   H        7.77053         6.50169        -4.27787
   H        6.12269        11.28869        -4.68348
   H        4.18526        10.16307        -6.11603
   H        5.90985         5.69172        -6.52103
   H        4.23247         4.73868        -8.33234
   H        1.19607         8.36025        -7.05748
   H        2.76657         8.81303        -4.45817
   H       -0.21678         9.63127        -7.61071
   H       -2.72783        12.41136        -5.69387
   H       -0.55471        12.31633        -1.64768
   H       -2.46256        13.38553        -3.80605
   H       -1.67888        13.35320        -0.05729
   H       -5.09078        16.15881        -4.92899
   H       -6.14892        17.67911        -3.19616
   H       -5.13828        17.32907         0.71360
   H       -3.57018        15.64941         2.76154
   H       -5.50763        18.04435         2.95036
   H       -3.11095        14.77052         7.77496
   H       -6.07536        18.72047         8.45338
   H       -5.95813        18.40142        10.84503
   H       -5.13654        17.14952        12.80004
   H       -3.67473        15.19072        12.49679
   H       -3.01918        14.46901        10.23444
*
