# ORCA input file
# SCF done       -220.196783861995          0.000250654015
! CAM-B3LYP def2-SVP def2/J RIJCOSX Grid4 TightSCF
%maxcore 5000
%tddft
    Mode sTDDFT
    Ethresh 5.0
    maxcore 5000
end

%pal
  nprocs 6
  end
* xyz 0 1
   C       -6.25514         1.57726         6.44498
   C       -7.33121         2.40245         6.61577
   F       -7.27737         3.40352         7.50184
   C       -8.50904         2.21170         5.86414
   F       -9.54694         3.03496         6.05362
   C       -8.59393         1.19749         4.95176
   C       -7.50231         0.32988         4.75363
   C       -6.31020         0.52235         5.51163
   C       -5.20117        -0.33427         5.32752
   C       -5.27942        -1.34968         4.40981
   C       -6.47581        -1.53693         3.66152
   C       -7.56520        -0.72949         3.82194
   C       -6.32410        -2.69599         2.76545
   O       -7.17933        -3.20920         2.08323
   C       -4.93768        -3.19951         3.00000
   C       -4.31038        -2.36310         4.00657
   C       -3.01478        -2.45524         4.44037
   C       -2.08140        -3.40808         3.97889
   N       -1.27497        -4.14952         3.63651
   C       -2.43840        -1.59234         5.39727
   N       -1.92001        -0.92620         6.17444
   C       -4.46461        -4.36523         2.48167
   C       -5.02503        -5.03209         1.35849
   O       -4.89449        -6.37479         1.25652
   C       -5.43272        -6.78795         0.08772
   C       -5.90469        -5.67399        -0.60459
   C       -5.64543        -4.55918         0.20469
   F       -5.85572        -3.29488        -0.11475
   F       -6.54747        -5.67069        -1.75547
   C       -5.50316        -8.16698        -0.25244
   N       -5.43037        -9.18177         0.66433
   C       -5.23434        -9.06002         2.08323
   C       -5.64223       -10.44123         0.06255
   O       -5.64760       -11.48064         0.68431
   C       -5.81776       -10.13770        -1.34070
   C       -5.71280        -8.73725        -1.50756
   C       -5.78486        -8.44686        -2.93280
   O       -5.64473        -7.43439        -3.57281
   N       -6.01476        -9.70961        -3.51922
   C       -6.17815        -9.85545        -4.94040
   C       -6.03370       -10.72235        -2.59606
   C       -6.27304       -12.07075        -2.93262
   C       -6.29096       -13.06569        -1.99852
   C       -6.58526       -14.42411        -2.26643
   C       -6.61059       -15.34957        -1.18426
   C       -7.00748       -16.71760        -1.35286
   N       -7.00007       -17.55398        -0.30002
   C       -6.66028       -17.09404         0.87617
   C       -6.30243       -15.71477         1.05239
   N       -6.27067       -14.89927         0.03087
   C       -5.95353       -15.23143         2.33980
   N       -5.68138       -14.88795         3.39749
   C       -6.62536       -17.97971         1.98449
   N       -6.58687       -18.66141         2.90345
   C       -7.46552       -17.21580        -2.59698
   C       -7.36149       -16.32774        -3.68794
   C       -6.91702       -14.96056        -3.53257
   N       -6.89743       -14.32164        -4.70381
   S       -7.36800       -15.31998        -5.86662
   N       -7.63175       -16.61750        -4.96265
   C       -7.94963       -18.55078        -2.68343
   C       -8.81340       -19.10302        -3.57649
   C       -8.85784       -20.58916        -3.72019
   O       -8.35647       -21.40210        -2.98242
   C       -9.59157       -20.83236        -4.97897
   C       -9.81650       -22.01333        -5.62556
   C      -10.53560       -22.00424        -6.84202
   C      -11.00085       -20.76459        -7.37006
   C      -11.71085       -20.76163        -8.58759
   C      -11.95158       -21.93391        -9.24748
   C      -11.49364       -23.15962        -8.72292
   C      -10.80022       -23.19538        -7.54553
   F      -11.74381       -24.29245        -9.39153
   F      -12.62712       -21.92874       -10.40339
   C      -10.75774       -19.55809        -6.67486
   C      -10.06991       -19.59229        -5.49122
   C       -9.71452       -18.53273        -4.55232
   C      -10.30928       -17.29950        -4.49239
   C      -10.12884       -16.38795        -3.43444
   N      -10.02249       -15.61290        -2.59370
   C      -11.20453       -16.80746        -5.46355
   N      -11.90688       -16.33837        -6.24094
   H       -5.36159         1.73859         7.02755
   H       -9.50176         1.06427         4.38456
   H       -4.31735        -0.16738         5.92172
   H       -8.45964        -0.89550         3.24121
   H       -3.62019        -4.86839         2.93426
   H       -5.99294        -8.41601         2.52932
   H       -4.24594        -8.65768         2.30687
   H       -5.31919       -10.06473         2.49843
   H       -6.07699        -8.86004        -5.37317
   H       -7.16525       -10.25386        -5.18082
   H       -5.41032       -10.50927        -5.35713
   H       -6.46917       -12.31116        -3.96723
   H       -6.08859       -12.83617        -0.95984
   H       -7.54302       -19.23392        -1.94321
   H       -9.45258       -22.94248        -5.21421
   H      -12.07225       -19.83300        -9.00096
   H      -10.45671       -24.14147        -7.15751
   H      -11.11553       -18.63413        -7.10028
*
