# ORCA input file
# SCF done       -244.746400993498          0.000829328650
! CAM-B3LYP def2-SVP def2/J RIJCOSX Grid4 TightSCF
%maxcore 5000
%tddft
    Mode sTDDFT
    Ethresh 5.0
    maxcore 5000
end

%pal
  nprocs 6
  end
* xyz 0 1
   C      -19.27977        -7.81311         1.45358
   C      -19.89710        -9.02072         1.28386
   F      -21.22086        -9.12881         1.44434
   C      -19.15062       -10.16594         0.93827
   F      -19.78122       -11.33604         0.77788
   C      -17.79686       -10.08733         0.76837
   C      -17.13155        -8.85727         0.93707
   C      -17.88530        -7.69795         1.28370
   C      -17.23985        -6.45151         1.44987
   C      -15.88371        -6.36722         1.27267
   C      -15.13648        -7.53242         0.93923
   C      -15.73315        -8.74977         0.77314
   C      -13.70688        -7.19200         0.83396
   O      -12.78801        -7.95963         0.64369
   C      -13.62766        -5.73241         1.11410
   C      -14.97007        -5.23283         1.34060
   C      -15.32157        -3.91685         1.47196
   C      -14.41033        -2.84487         1.35348
   N      -13.72288        -1.93803         1.20648
   C      -16.64386        -3.46954         1.67769
   N      -17.70069        -3.05739         1.85022
   C      -12.45397        -5.06877         1.29689
   C      -11.18733        -5.58001         0.90204
   C      -10.03116        -5.63800         1.66396
   N       -9.89956        -5.17751         2.98727
   O       -8.79616        -5.23087         3.49582
   O      -10.89943        -4.74741         3.54019
   C       -9.01208        -6.33352         0.93434
   C       -9.53896        -6.74057        -0.25423
   C      -10.89060        -6.27483        -0.35074
   C      -11.74033        -6.31377        -1.44417
   C      -12.71159        -5.33804        -1.78416
   C      -13.27437        -5.68392        -2.97961
   C      -12.72988        -6.92757        -3.42725
   N      -13.22258        -7.50853        -4.60217
   O      -12.66801        -8.48948        -5.08516
   O      -14.20744        -6.99234        -5.10529
   C      -11.77781        -7.36784        -2.48594
   C      -11.11546        -8.57784        -2.26189
   C      -11.03610        -9.67044        -3.09711
   C      -10.37660       -10.85174        -2.76523
   S       -9.51245       -11.06504        -1.26134
   C       -9.07305       -12.69211        -1.69408
   C       -9.59035       -13.04164        -2.95536
   C      -10.30613       -12.01722        -3.55405
   C      -10.91742       -12.14270        -4.90557
   C      -11.09369       -13.62037        -5.28143
   O      -12.05016       -14.28745        -4.48701
   C      -13.38903       -14.03564        -4.84321
   C       -9.75228       -14.34656        -5.08110
   O       -8.78758       -13.65927        -5.84795
   C       -7.65061       -14.41792        -6.18418
   C       -9.41450       -14.38334        -3.58321
   C       -8.28700       -13.50175        -0.86148
   C       -7.72372       -13.09776         0.31831
   C       -6.89851       -13.91828         1.11325
   C       -6.56760       -15.25080         0.92555
   C       -5.67897       -15.66269         1.94780
   C       -5.46318       -14.47909         2.80875
   C       -6.19617       -13.45515         2.30508
   C       -4.61554       -14.41052         3.92042
   N       -3.91279       -14.34619         4.82719
   C       -5.08684       -16.89753         2.09928
   C       -4.16866       -17.28543         3.11480
   C       -3.69157       -18.54813         2.83823
   C       -4.36390       -19.02426         1.63901
   C       -5.18964       -18.04545         1.18269
   C       -5.97811       -18.11465         0.02961
   N       -6.62844       -18.18245        -0.91554
   C       -2.74004       -19.30313         3.56958
   C       -1.79469       -18.86198         4.44254
   C       -1.17126       -19.84627         5.37924
   O       -1.24575       -21.04984         5.30635
   C       -0.51197       -19.03181         6.41619
   C        0.09799       -19.43776         7.56872
   C        0.63979       -18.46439         8.43720
   C        0.52292       -17.08366         8.10128
   C        1.05557       -16.11739         8.97834
   C        1.68065       -16.50360        10.13065
   C        1.79870       -17.86950        10.46016
   C        1.28885       -18.83031         9.63274
   F        2.41636       -18.21850        11.59584
   F        2.18973       -15.58574        10.96109
   C       -0.11096       -16.69345         6.89966
   C       -0.60721       -17.65581         6.06145
   C       -1.26205       -17.55061         4.75916
   C       -1.14742       -16.47367         3.92138
   C       -1.59581       -16.43968         2.58667
   N       -1.91504       -16.35230         1.48708
   C       -0.47238       -15.28139         4.26526
   N        0.07709       -14.29843         4.48321
   H      -19.86627        -6.94657         1.71608
   H      -17.24010       -10.97292         0.50489
   H      -17.83477        -5.59303         1.71704
   H      -15.14513        -9.61838         0.51811
   H      -12.44593        -4.12314         1.82763
   H       -8.01619        -6.48991         1.30276
   H       -8.99906        -7.21523        -1.05110
   H      -12.88438        -4.42714        -1.24357
   H      -14.01132        -5.13259        -3.53352
   H      -10.63588        -8.66419        -1.29510
   H      -11.49883        -9.62405        -4.07228
   H      -10.24678       -11.69233        -5.64191
   H      -11.87172       -11.61820        -4.95678
   H      -11.37641       -13.68139        -6.34325
   H      -13.99432       -14.69240        -4.22166
   H      -13.56713       -14.26691        -5.89941
   H      -13.67788       -12.99654        -4.65454
   H       -9.85155       -15.38157        -5.44115
   H       -7.05339       -13.78960        -6.84168
   H       -7.93013       -15.33668        -6.71221
   H       -7.05461       -14.68294        -5.30438
   H       -8.39401       -14.74443        -3.44644
   H      -10.09563       -15.09135        -3.10428
   H       -8.10773       -14.51030        -1.20554
   H       -7.89160       -12.08306         0.65775
   H       -6.92273       -15.89249         0.14471
   H       -6.25173       -12.45520         2.69445
   H       -3.92792       -16.69332         3.97498
   H       -4.19451       -19.98339         1.18576
   H       -2.79787       -20.38325         3.46601
   H        0.16641       -20.48663         7.81409
   H        0.97679       -15.06846         8.73904
   H        1.38678       -19.87092         9.89967
   H       -0.19997       -15.64243         6.67647
*
