# ORCA input file
# SCF done       -216.745734430698          0.000400126314
! CAM-B3LYP def2-SVP def2/J RIJCOSX Grid4 TightSCF
%maxcore 5000
%tddft
    Mode sTDDFT
    Ethresh 5.0
    maxcore 5000
end

%pal
  nprocs 6
  end
* xyz 0 1
   C        1.78421         2.32487         3.39650
   C        3.06692         2.48577         3.83977
   F        3.51212         3.69981         4.18631
   C        3.93660         1.38047         3.93817
   F        5.18811         1.56829         4.37610
   C        3.51078         0.12889         3.59171
   C        2.19437        -0.06928         3.13171
   C        1.31417         1.04733         3.03045
   C       -0.01026         0.87289         2.56840
   C       -0.44080        -0.37946         2.21510
   C        0.44351        -1.48856         2.32538
   C        1.72676        -1.35206         2.77119
   C       -0.25432        -2.72042         1.91246
   O        0.18435        -3.84868         1.95941
   C       -1.62805        -2.29314         1.53407
   C       -1.72269        -0.85443         1.70312
   C       -2.79181        -0.06601         1.36985
   C       -3.99047        -0.53369         0.78904
   N       -4.98081        -0.83856         0.29542
   C       -2.82137         1.33495         1.53688
   N       -2.90327         2.47354         1.65474
   C       -2.64737        -3.15723         1.26285
   C       -2.50930        -4.54271         0.97966
   C       -3.43672        -5.51407         1.29469
   C       -2.92143        -6.79017         0.91773
   C       -1.63209        -6.52869         0.26293
   C       -1.39491        -5.18981         0.30350
   C       -0.79230        -7.47291        -0.33717
   N       -0.09289        -8.23415        -0.83934
   C       -3.47856        -8.02818         1.15463
   C       -2.90347        -9.29224         0.87197
   C       -3.74585       -10.28753         1.32619
   C       -4.92189        -9.64964         1.90288
   C       -4.77620        -8.30438         1.80939
   C       -5.70471        -7.35977         2.26147
   N       -6.48526        -6.60971         2.64521
   C       -3.51196       -11.67931         1.30003
   C       -2.39084       -12.32264         0.78954
   C       -2.45265       -13.69234         0.99293
   C       -3.63293       -14.11895         1.66187
   S       -4.66846       -12.79472         2.02236
   C       -3.52458       -15.49431         1.82972
   C       -2.27891       -15.88110         1.26361
   N       -1.65366       -14.77670         0.75115
   C       -1.99780       -17.23199         1.39861
   C       -3.01605       -17.90471         2.06580
   S       -4.35004       -16.84102         2.50862
   C       -3.07816       -19.25910         2.45704
   C       -2.06212       -20.15483         2.30174
   C       -2.07250       -21.48603         2.77002
   C       -0.99213       -22.34774         2.74293
   C       -1.34062       -23.56375         3.38197
   C       -2.75990       -23.42351         3.77695
   C       -3.18006       -22.18674         3.41424
   C       -3.55768       -24.39360         4.39548
   N       -4.24665       -25.16828         4.88961
   C       -0.51520       -24.62921         3.66478
   C       -0.81801       -25.78040         4.44977
   C        0.33761       -26.50207         4.65245
   C        1.40695       -25.85249         3.91033
   C        0.90435       -24.74533         3.30140
   C        1.63119       -23.89401         2.46254
   N        2.25380       -23.21825         1.77272
   C        0.46924       -27.68256         5.43174
   C        1.58968       -28.13293         6.05694
   C        1.70378       -29.55879         6.47492
   O        0.81269       -30.37245         6.52497
   C        3.14135       -29.76378         6.75036
   C        3.79787       -30.92013         7.05934
   C        5.19528       -30.88308         7.26502
   C        5.88874       -29.64400         7.13944
   C        7.28339       -29.61517         7.34097
   C        7.95738       -30.76160         7.65556
   C        7.27056       -31.98634         7.78065
   C        5.91857       -32.04727         7.58982
   F        7.95734       -33.09403         8.08850
   F        9.28190       -30.73231         7.84848
   C        5.18203       -28.46133         6.82352
   C        3.82644       -28.51949         6.63861
   C        2.84615       -27.47600         6.35171
   C        3.02495       -26.13454         6.56751
   C        1.97665       -25.18951         6.57278
   N        1.15855       -24.38994         6.66820
   C        4.26372       -25.55798         6.91701
   N        5.25532       -25.04457         7.18173
   H        1.13249         3.18173         3.32638
   H        4.18788        -0.70698         3.67292
   H       -0.65271         1.73645         2.50940
   H        2.37555        -2.21160         2.84523
   H       -3.66687        -2.79283         1.30481
   H       -4.36601        -5.35254         1.80608
   H       -0.55842        -4.68445        -0.13784
   H       -1.95251        -9.43371         0.40075
   H       -5.75414       -10.17952         2.32877
   H       -1.58472       -11.79960         0.31039
   H       -0.75263       -14.75814         0.30538
   H       -1.10646       -17.71181         1.04091
   H       -3.99030       -19.56625         2.94913
   H       -1.14404       -19.83758         1.82666
   H       -0.02425       -22.12244         2.34044
   H       -4.16606       -21.78856         3.56416
   H       -1.77488       -25.99610         4.88319
   H        2.40944       -26.22822         3.81337
   H       -0.40188       -28.32662         5.49601
   H        3.25821       -31.85076         7.14700
   H        7.82367       -28.68557         7.25263
   H        5.40779       -32.99219         7.68938
   H        5.73179       -27.53852         6.72728
*
