# ORCA input file
# SCF done       -232.018928029251          0.000379076160
! CAM-B3LYP def2-SVP def2/J RIJCOSX Grid4 TightSCF
%maxcore 5000
%tddft
    Mode sTDDFT
    Ethresh 5.0
    maxcore 5000
end

%pal
  nprocs 6
  end
* xyz 0 1
   C       -4.25553        -0.78680         9.83544
   C       -5.54327        -0.33502         9.76309
   F       -5.89129         0.80649        10.37037
   C       -6.52002        -1.06105         9.05144
   F       -7.77427        -0.59416         8.99874
   C       -6.19490        -2.22964         8.42186
   C       -4.87656        -2.72215         8.47916
   C       -3.88737        -1.98838         9.19688
   C       -2.55684        -2.46082         9.26433
   C       -2.22570        -3.63076         8.63170
   C       -3.22144        -4.35961         7.92526
   C       -4.51457        -3.92980         7.84304
   C       -2.62973        -5.57974         7.34314
   O       -3.22230        -6.43370         6.72447
   C       -1.20120        -5.56827         7.76900
   C       -0.96032        -4.34826         8.51841
   C        0.25356        -3.89743         8.96762
   C        1.48656        -4.55700         8.77687
   N        2.52665        -5.02613         8.64844
   C        0.43548        -2.68365         9.66396
   N        0.64444        -1.71382        10.24101
   C       -0.33294        -6.61636         7.65967
   C       -0.46642        -7.76414         6.83819
   C       -1.16126        -7.91913         5.65656
   C       -0.98127        -9.24896         5.17770
   C       -0.10224        -9.91869         6.14822
   C        0.21996        -9.01747         7.11501
   C        0.34496       -11.24167         6.10282
   N        0.72788       -12.32508         6.10142
   C       -1.54565        -9.79519         4.04411
   C       -1.48627       -11.13557         3.58974
   C       -2.24252       -11.25149         2.43370
   C       -2.79239        -9.93620         2.12083
   C       -2.38516        -9.05922         3.06846
   C       -2.68788        -7.69082         3.05669
   N       -2.94756        -6.57523         2.97674
   C       -2.48241       -12.39060         1.65231
   S       -3.54234       -12.32604         0.27198
   C       -3.40037       -14.02067        -0.03934
   C       -2.48575       -14.60855         0.85492
   C       -1.99279       -13.70103         1.83100
   N       -1.19039       -14.11718         2.82295
   C       -0.85388       -15.38964         2.82400
   O       -0.15271       -15.89958         3.80324
   C        0.25355       -15.01628         4.85106
   C        1.03927       -15.81211         5.87323
   C       -1.20658       -16.26583         1.72471
   C       -0.58176       -17.62572         1.63531
   N        0.86480       -17.48531         1.56395
   N       -2.00595       -15.86377         0.78559
   C       -4.13040       -14.63439        -1.07412
   C       -4.34933       -16.03694        -1.13871
   C       -4.99275       -16.64179        -2.27719
   N       -4.95671       -17.97694        -2.39861
   C       -4.51465       -18.71203        -1.40947
   C       -4.16277       -18.10052        -0.16258
   N       -4.04583       -16.79646        -0.08629
   C       -3.89885       -18.88499         0.98422
   N       -3.64704       -19.54554         1.88592
   C       -4.46629       -20.11620        -1.59083
   N       -4.45929       -21.25341        -1.72739
   C       -5.62099       -15.87783        -3.28980
   C       -5.45600       -14.48073        -3.18761
   C       -4.73020       -13.87355        -2.10194
   N       -4.71576       -12.54461        -2.19407
   S       -5.53850       -12.10446        -3.50208
   N       -5.94503       -13.56284        -4.02268
   C       -6.33123       -16.44198        -4.38617
   C       -6.94338       -17.65255        -4.47055
   C       -7.24254       -18.23178        -5.81529
   O       -7.25020       -17.64386        -6.86954
   C       -7.45417       -19.67231        -5.56954
   C       -7.61182       -20.68408        -6.47254
   C       -7.74690       -22.00936        -6.00112
   C       -7.69935       -22.26367        -4.59891
   C       -7.81108       -23.59071        -4.13806
   C       -7.97354       -24.61633        -5.02673
   C       -8.02928       -24.36307        -6.41257
   C       -7.91676       -23.08778        -6.89115
   F       -8.19201       -25.38719        -7.26030
   F       -8.08392       -25.87656        -4.58956
   C       -7.54869       -21.19503        -3.68609
   C       -7.44209       -19.91738        -4.16583
   C       -7.30111       -18.64088        -3.47485
   C       -7.67729       -18.39968        -2.17910
   C       -7.68173       -17.11904        -1.59466
   N       -7.67691       -16.09384        -1.07672
   C       -8.09946       -19.40437        -1.28435
   N       -8.42707       -20.17997        -0.50478
   H       -3.52042        -0.21756        10.38272
   H       -6.95303        -2.77397         7.88090
   H       -1.83401        -1.88574         9.82006
   H       -5.24777        -4.50320         7.29661
   H        0.55483        -6.60738         8.28211
   H       -1.73472        -7.16709         5.15593
   H        0.85494        -9.19069         7.96454
   H       -0.96401       -11.93924         4.06892
   H       -3.41036        -9.72544         1.26754
   H       -0.63486       -14.55984         5.30000
   H        0.86347       -14.21432         4.42518
   H        0.41801       -16.58877         6.31080
   H        1.37666       -15.13853         6.65438
   H        1.90049       -16.27714         5.40199
   H       -1.03006       -18.15513         0.78018
   H       -0.82270       -18.17410         2.55067
   H        1.14235       -17.10032         0.66746
   H        1.31317       -18.38649         1.67394
   H       -6.34816       -15.83927        -5.28870
   H       -7.62860       -20.47807        -7.53200
   H       -7.77017       -23.79996        -3.08068
   H       -7.95844       -22.91157        -7.95464
   H       -7.50089       -21.41491        -2.63146
*
