# ORCA input file
# SCF done       -203.647795757851          0.000986179532
! CAM-B3LYP def2-SVP def2/J RIJCOSX Grid4 TightSCF
%maxcore 5000
%tddft
    Mode sTDDFT
    Ethresh 5.0
    maxcore 5000
end

%pal
  nprocs 6
  end
* xyz 0 1
   C       -0.44176        -1.33902        -2.50926
   C       -1.71570        -0.93496        -2.79760
   F       -2.74528        -1.77347        -2.56612
   C       -2.00088         0.32887        -3.32884
   C       -0.96758         1.19221        -3.56947
   C        0.36446         0.82815        -3.28941
   C        0.63330        -0.46236        -2.74976
   C        1.96402        -0.85101        -2.46070
   C        2.98387         0.02845        -2.69403
   C        2.70837         1.32010        -3.22627
   C        1.43920         1.71720        -3.52601
   C        3.97816         2.06887        -3.34522
   O        4.14018         3.17821        -3.80977
   C        5.00771         1.19838        -2.73040
   C        4.42871        -0.08712        -2.49883
   C        5.11368        -1.27068        -2.31977
   C        6.51133        -1.35305        -2.40800
   N        7.65675        -1.43726        -2.46644
   C        4.50431        -2.51089        -2.06838
   N        4.07008        -3.54416        -1.81224
   C        6.24424         1.74324        -2.45124
   C        7.24885         1.41102        -1.53376
   C        7.12217         0.56765        -0.43177
   C        8.27192         0.47980         0.41864
   O        8.24492        -0.20508         1.59178
   C        6.94717        -0.51243         2.05435
   C        6.09822        -1.04045         0.90574
   O        5.97444        -0.05891        -0.10973
   C        9.40176         1.15902         0.00952
  Si        9.01283         2.03822        -1.60197
   C        9.92785         1.32960        -3.07242
   C        9.15158         3.90234        -1.45603
   C       10.57252         1.20758         0.79078
   C       11.73653         1.89707         0.47461
   C       12.67152         1.83521         1.49951
   C       12.23089         1.08539         2.62029
   S       10.65190         0.44157         2.37805
   C       13.23761         1.16603         3.57738
   C       14.27051         1.96113         3.01742
   N       13.92364         2.33962         1.74496
   C       14.68023         3.19951         0.87977
   C       15.33251         2.17801         3.88522
   C       15.13300         1.56098         5.11410
   S       13.61173         0.67166         5.18415
   C       15.97989         1.65475         6.23505
   C       15.69259         1.02740         7.43059
   C       16.56379         1.31264         8.53101
   O       16.33689         0.79083         9.75197
   C       15.05633         0.20625         9.92329
   C       14.68239        -0.62954         8.70660
   O       14.63206         0.18803         7.55697
   C       17.67226         2.10296         8.23803
  Si       17.57807         2.61642         6.43849
   C       18.96671         1.92904         5.38240
   C       17.35626         4.46718         6.27458
   C       18.66465         2.51624         9.13592
   C       18.71838         2.58775        10.51286
   C       20.04874         2.64355        11.16258
   O       21.12312         2.78454        10.61564
   C       19.79372         2.45518        12.60689
   C       20.68140         2.35203        13.63645
   C       20.19448         2.16138        14.95099
   C       18.78932         2.07678        15.16805
   C       18.31091         1.88284        16.47790
   C       19.20148         1.78524        17.51064
   C       20.58607         1.86911        17.31890
   C       21.06726         2.05436        16.05194
   F       18.74409         1.60146        18.76508
   C       17.89175         2.19703        14.07968
   C       18.38759         2.38797        12.82023
   C       17.71928         2.58918        11.53472
   C       16.39028         2.92916        11.38745
   C       15.86381         3.43718        10.19158
   N       15.40858         3.85413         9.22133
   C       15.43209         2.85785        12.41211
   N       14.58647         2.77563        13.18653
   H       -0.25945        -2.32179        -2.10302
   H       -3.02570         0.59356        -3.53574
   H       -1.16203         2.17254        -3.97825
   H        2.13915        -1.83312        -2.05016
   H        1.25206         2.69835        -3.93630
   H        6.43074         2.66224        -3.00129
   H        7.06707        -1.26340         2.83617
   H        6.48074         0.38863         2.47656
   H        5.08343        -1.27629         1.22943
   H        6.56945        -1.93849         0.48468
   H        9.71764         0.26679        -3.18431
   H       11.00751         1.43824        -2.98829
   H        9.63049         1.81246        -4.00145
   H        8.69743         4.28008        -0.54169
   H        8.65647         4.40218        -2.28621
   H       10.18578         4.23962        -1.45993
   H       11.85458         2.41635        -0.45783
   H       15.74456         3.03226         1.04247
   H       14.45587         4.25382         1.07061
   H       14.43960         2.97090        -0.15766
   H       16.20849         2.76332         3.67751
   H       14.31112         1.00083        10.06119
   H       15.11555        -0.40152        10.82737
   H       13.69025        -1.06837         8.81836
   H       15.42489        -1.42694         8.56192
   H       19.04997         0.84661         5.46184
   H       19.92895         2.34397         5.67547
   H       18.83319         2.16082         4.32791
   H       16.57906         4.82401         6.94907
   H       17.07369         4.77000         5.26821
   H       18.26825         5.00618         6.52447
   H       19.60431         2.79665         8.66619
   H       21.74385         2.41822        13.45534
   H       17.25008         1.81724        16.66351
   H       21.24107         1.78657        18.17169
   H       22.13091         2.12226        15.87884
   H       16.83270         2.13071        14.27338
*
