# ORCA input file
# SCF done       -227.598934440641          0.000575016966
! CAM-B3LYP def2-SVP def2/J RIJCOSX Grid4 TightSCF
%maxcore 5000
%tddft
    Mode sTDDFT
    Ethresh 5.0
    maxcore 5000
end

%pal
  nprocs 6
  end
* xyz 0 1
   C        1.39507         1.44045         1.58443
   C        2.32810         2.62383         1.46058
   C        3.24688         2.76025         0.43029
   C        4.05843         3.88138         0.36357
   C        3.95451         4.87949         1.31428
   C        3.02401         4.75951         2.33417
   C        2.21476         3.64306         2.40390
   C        1.53271         0.68501         2.89434
   C        0.60841        -0.31325         3.18722
   C        0.71917        -1.05324         4.34859
   C        1.75865        -0.80937         5.23091
   C        2.68290         0.17973         4.94570
   C        2.57280         0.92617         3.78506
   C        1.47261         0.46046         0.44147
   C        0.32411         0.34496        -0.30397
   C       -0.74101         1.23779         0.06488
   C       -1.94196         1.38768        -0.57935
   C       -2.27408         0.73485        -1.78088
   N       -2.58335         0.26405        -2.78056
   C       -2.91702         2.27672        -0.08512
   N       -3.70896         2.99712         0.32704
   S       -0.33061         2.15777         1.48097
   C        0.10985        -0.70370        -1.21900
   N       -0.05653        -1.62500        -1.88183
   C        2.64965        -0.29953         0.21937
   S        3.70986        -0.73751         1.53714
   C        4.78010        -1.64058         0.50052
   C        4.33850        -1.56421        -0.80698
   C        3.14965        -0.80309        -0.98561
   C        2.83241        -0.65821        -2.35868
   C        3.71149        -1.32254        -3.15931
   C        3.72211        -1.41975        -4.62568
   O        4.55108        -2.03905        -5.24544
   O        2.71414        -0.73813        -5.17235
   C        2.62296        -0.79224        -6.59018
   S        4.98469        -2.15240        -2.30192
   C        5.90966        -2.29597         1.03639
   C        6.36278        -2.22571         2.34389
   C        7.51458        -2.98204         2.53499
   C        7.93474        -3.64447         1.36541
   S        6.91681        -3.32298         0.02982
   C        9.10931        -4.37399         1.66161
   C        9.44426        -4.16614         3.01223
   C        8.44756        -3.28891         3.60701
   C        8.39264        -2.84483         4.89559
   C        7.35860        -1.99781         5.34751
   N        6.51542        -1.31074         5.71082
   C        9.36360        -3.20485         5.85384
   N       10.15403        -3.49804         6.63070
   C       10.60084        -4.84265         3.39590
   C       11.14099        -5.57770         2.35487
   S       10.20704        -5.41289         0.87085
   C       12.30104        -6.40429         2.36401
   C       12.58919        -7.25834         1.32270
   C       13.69729        -8.09480         1.25497
   C       14.66169        -8.14099         2.36327
   C       14.57351        -7.38581         3.48168
   S       13.32178        -6.25536         3.78170
   C       15.61366        -9.13410         2.00554
   C       15.26683        -9.68873         0.77388
   C       16.16312       -10.70139         0.36970
   C       17.14816       -10.88346         1.28812
   S       17.03037        -9.84371         2.66841
   C       14.07775        -9.04204         0.27645
   C       13.49789        -9.42852        -0.94803
   C       12.49795        -8.82837        -1.65940
   C       11.91618        -9.34010        -2.84480
   C       12.11265       -10.56616        -3.44817
   C       11.25312       -10.84439        -4.56494
   C       11.23727       -11.96806        -5.35340
   C       12.11366       -13.06130        -5.23609
   N       12.79045       -13.98828        -5.21942
   C       10.29254       -12.08651        -6.39248
   N        9.51864       -12.17452        -7.23526
   S       10.11224        -9.55827        -4.82996
   C       10.91803        -8.45649        -3.55474
   C       11.58110        -7.33928        -4.33711
   C       10.81555        -6.63977        -5.26750
   C       11.37203        -5.62050        -6.01478
   C       12.70702        -5.28827        -5.84966
   C       13.47546        -5.98427        -4.93513
   C       12.91920        -7.00594        -4.18215
   C        9.84057        -7.97478        -2.60502
   C        9.15159        -8.92236        -1.85280
   C        8.14018        -8.53927        -0.99315
   C        7.79445        -7.20278        -0.87986
   C        8.48174        -6.25492        -1.61647
   C        9.50736        -6.63438        -2.46591
   C       13.03479       -11.53875        -3.02362
   N       13.79371       -12.32712        -2.67413
   H        3.33984         2.00159        -0.33215
   H        4.77021         3.97142        -0.44331
   H        4.58744         5.75181         1.25685
   H        2.92420         5.53897         3.07396
   H        1.47965         3.55524         3.19141
   H       -0.20652        -0.51218         2.50514
   H       -0.00740        -1.82262         4.56135
   H        1.84837        -1.38971         6.13630
   H        3.50085         0.36999         5.62330
   H        3.30896         1.68503         3.56909
   H        2.01372        -0.08983        -2.75695
   H        1.70017        -0.28159        -6.85149
   H        2.59920        -1.82976        -6.92826
   H        3.48203        -0.29292        -7.04342
   H        5.86492        -1.64089         3.09649
   H       11.03058        -4.82025         4.38123
   H       11.86522        -7.28512         0.52124
   H       15.29733        -7.44885         4.27879
   H       16.08505       -11.27044        -0.53877
   H       17.96145       -11.58120         1.24748
   H       13.94008       -10.32042        -1.36682
   H       12.09859        -7.87717        -1.33719
   H        9.77725        -6.90583        -5.40783
   H       10.76289        -5.08989        -6.73056
   H       13.14591        -4.49586        -6.43666
   H       14.51898        -5.73961        -4.80442
   H       13.54168        -7.53714        -3.47751
   H        9.40268        -9.96923        -1.95079
   H        7.61421        -9.28783        -0.42009
   H        6.99202        -6.90265        -0.22264
   H        8.21696        -5.21036        -1.54063
   H       10.04055        -5.87861        -3.02183
*
