# ORCA input file
# SCF done       -208.699077132089          0.000894590062
! CAM-B3LYP def2-SVP def2/J RIJCOSX Grid4 TightSCF
%maxcore 5000
%tddft
    Mode sTDDFT
    Ethresh 5.0
    maxcore 5000
end

%pal
  nprocs 6
  end
* xyz 0 1
   C       -3.53251         3.36031         1.10437
   C       -2.80313         4.00707         0.11759
   C       -2.69531         3.47552        -1.15980
   C       -3.32500         2.28539        -1.49230
   C       -4.05997         1.63403        -0.51611
   C       -4.15903         2.16464         0.78987
   C       -4.95387         1.25735         1.60734
   C       -5.38627         1.49917         2.88390
   C       -5.11901         2.68827         3.59596
   N       -4.94200         3.62653         4.23274
   C       -6.19164         0.63552         3.65575
   N       -6.84656        -0.01411         4.33982
   C       -5.19127         0.06398         0.80089
   C       -4.83590         0.40488        -0.57246
   C       -5.35833        -0.14128        -1.71415
   C       -6.31683        -1.17425        -1.73687
   N       -7.12343        -1.98786        -1.81278
   C       -5.07684         0.33339        -3.01335
   N       -4.89212         0.67473        -4.09284
   C       -5.57261        -1.14401         1.31967
   C       -5.44551        -2.41811         0.73117
   C       -4.62096        -2.84051        -0.30478
   C       -4.76665        -4.19159        -0.57580
   C       -5.70547        -4.82639         0.26888
   S       -6.38390        -3.75345         1.40031
   C       -5.79713        -6.18393        -0.11219
   C       -4.93116        -6.41063        -1.19876
   C       -4.25510        -5.16373        -1.52410
   C       -3.35139        -4.93857        -2.52047
   C       -2.92243        -5.96099        -3.39256
   N       -2.56655        -6.79440        -4.09463
   C       -2.79164        -3.65961        -2.72552
   N       -2.34471        -2.61391        -2.87275
   C       -4.96335        -7.72374        -1.65756
   C       -5.84106        -8.50810        -0.92505
   S       -6.64127        -7.59873         0.34754
   C       -6.12141        -9.88205        -1.10897
   C       -6.93338       -10.69527        -0.33041
   C       -6.97659       -11.99796        -0.80117
   C       -6.20240       -12.18341        -1.94997
   S       -5.40439       -10.75211        -2.45275
   C       -6.30635       -13.52874        -2.36270
   C       -7.13960       -14.21487        -1.47476
   C       -7.64521       -13.28977        -0.39245
   C       -9.17089       -13.16646        -0.43382
   C       -7.17548       -13.74386         0.99258
   C       -7.29233       -15.55148        -1.80732
   C       -6.58617       -15.89174        -2.95289
   S       -5.71275       -14.52647        -3.62382
   C       -6.51604       -17.15582        -3.58319
   C       -5.87524       -17.46781        -4.77238
   C       -6.01038       -18.81341        -5.09931
   C       -6.75462       -19.54030        -4.15071
   S       -7.29464       -18.55545        -2.86086
   C       -6.83557       -20.88747        -4.56909
   C       -6.14267       -21.01299        -5.79473
   C       -5.61075       -19.71554        -6.16887
   C       -4.91470       -19.41145        -7.30168
   C       -4.62673       -20.39591        -8.27074
   N       -4.40324       -21.21043        -9.04644
   C       -4.44597       -18.10843        -7.57086
   N       -4.06049       -17.04996        -7.78327
   C       -6.18064       -22.29939        -6.30815
   C       -6.89533       -23.17088        -5.49473
   S       -7.49946       -22.36409        -4.04860
   C       -7.11547       -24.55462        -5.64899
   C       -7.03580       -25.28156        -6.80666
   C       -6.81884       -26.72337        -6.85808
   C       -6.96412       -27.62444        -5.83680
   C       -7.39933       -27.32231        -4.52948
   N       -7.74807       -27.15217        -3.44851
   C       -6.72820       -29.01006        -5.96559
   N       -6.55686       -30.14435        -5.99657
   C       -6.39489       -27.03622        -8.21678
   C       -6.49898       -25.87009        -9.00823
   C       -6.12434       -25.88183       -10.34134
   C       -5.65269       -27.06773       -10.88393
   C       -5.56310       -28.21845       -10.11343
   C       -5.93028       -28.21646        -8.77581
   C       -7.04395       -24.80268        -8.18462
   C       -7.69457       -23.69655        -8.66280
   C       -7.78433       -23.36598       -10.03196
   N       -7.89785       -23.04334       -11.12696
   C       -8.44167       -22.80229        -7.86998
   N       -9.09693       -22.06360        -7.28391
   H       -3.59686         3.78419         2.09289
   H       -2.30706         4.93625         0.35284
   H       -2.11188         3.99205        -1.90636
   H       -3.22561         1.87442        -2.48380
   H       -5.96463        -1.15041         2.32800
   H       -3.92143        -2.19221        -0.80042
   H       -4.38521        -8.11096        -2.47730
   H       -7.45282       -10.32653         0.53604
   H       -9.49845       -12.84416        -1.41947
   H       -9.50587       -12.43857         0.30059
   H       -9.62860       -14.12671        -0.21062
   H       -6.09146       -13.82889         1.01600
   H       -7.60684       -14.71204         1.23331
   H       -7.48557       -13.02421         1.74581
   H       -7.88580       -16.26622        -1.26563
   H       -5.34682       -16.73550        -5.35603
   H       -5.68080       -22.61321        -7.20670
   H       -7.30301       -25.09213        -4.72924
   H       -6.17898       -24.99024       -10.94454
   H       -5.34972       -27.09235       -11.91937
   H       -5.19616       -29.13110       -10.55752
   H       -5.84519       -29.11822        -8.19232
*
