# ORCA input file
# SCF done       -170.333171440492          0.000189332867
! CAM-B3LYP def2-SVP def2/J RIJCOSX Grid4 TightSCF
%maxcore 5000
%tddft
    Mode sTDDFT
    Ethresh 5.0
    maxcore 5000
end

%pal
  nprocs 6
  end
* xyz 0 1
   C       -4.73426        -5.43704         5.33704
   N       -3.60001        -5.69985         4.74877
   N       -3.51974        -5.98205         3.47408
   C       -4.57432        -6.02420         2.67813
   C       -5.86792        -5.75508         3.21010
   C       -5.94297        -5.44778         4.60804
   N       -7.19499        -5.21456         5.00116
   S       -8.16811        -5.36926         3.73336
   N       -7.06164        -5.73762         2.62526
   C       -4.34757        -6.34290         1.30579
   C       -5.26465        -6.43941         0.27920
   C       -4.64628        -6.76980        -0.92638
   C       -3.25120        -6.92291        -0.79643
   S       -2.70198        -6.66107         0.79567
   C       -2.72016        -7.25384        -2.07097
   C       -3.77081        -7.30726        -2.99990
   C       -5.01784        -7.00655        -2.30995
   C       -6.26904        -6.95904        -2.85132
   C       -6.50827        -7.20902        -4.21910
   N       -6.71340        -7.41147        -5.32897
   C       -7.41288        -6.65758        -2.08197
   N       -8.35093        -6.41379        -1.46919
   C       -3.34085        -7.62340        -4.28976
   C       -1.97359        -7.81216        -4.34644
   S       -1.20534        -7.59597        -2.78268
   C       -1.19106        -8.13784        -5.48820
   C        0.15997        -8.34829        -5.54073
   C        0.62679        -8.64548        -6.84014
   C       -0.41210        -8.65513        -7.78612
   S       -1.95199        -8.30381        -7.06115
   C       -0.22836        -8.91062        -9.14092
   O       -1.37914        -8.86634        -9.85785
   C       -1.44245        -9.13915       -11.23551
   C        1.09307        -9.16507        -9.55556
   C        2.15226        -9.16446        -8.58646
   C        1.95513        -8.91369        -7.23965
   O        2.85492        -8.88188        -6.22541
   C        4.22091        -9.13820        -6.44939
   S        3.69162        -9.50892        -9.35919
   C        2.93748        -9.63396       -10.92467
   C        1.58771        -9.43256       -10.85788
   C        3.71466        -9.90697       -12.08467
   C        3.26991        -9.99197       -13.39170
   C        4.31125       -10.26266       -14.27847
   C        5.55688       -10.38707       -13.64309
   S        5.44390       -10.16894       -11.95259
   C        6.54517       -10.65358       -14.62633
   C        5.91420       -10.69416       -15.88709
   C        4.49536       -10.45221       -15.71070
   C        3.52946       -10.40623       -16.67456
   C        3.81447       -10.60142       -18.04207
   N        4.03227       -10.75798       -19.15695
   C        2.17802       -10.15797       -16.35876
   N        1.08014        -9.95537       -16.09458
   C        6.80890       -10.94414       -16.92765
   C        8.09792       -11.09169       -16.45910
   S        8.22561       -10.92461       -14.71927
   C        9.29161       -11.34970       -17.19733
   N       10.41696       -11.46070       -16.51288
   N       11.57396       -11.69326       -17.07707
   C       11.70774       -11.83215       -18.36719
   C       10.58829       -11.73621       -19.22175
   C        9.31442       -11.48432       -18.61510
   N        8.33462       -11.41304       -19.51084
   S        8.96273       -11.64184       -20.97422
   N       10.49765       -11.84126       -20.54734
   H       -4.70300        -5.21476         6.39208
   H       -6.31646        -6.27331         0.42732
   H       -3.97306        -7.71591        -5.15437
   H        0.80724        -8.29363        -4.68445
   H       -2.50104        -9.07136       -11.48528
   H       -1.08673       -10.14729       -11.46586
   H       -0.89295        -8.39622       -11.82076
   H        4.68862        -9.05791        -5.46881
   H        4.66851        -8.40113        -7.12100
   H        4.38675       -10.14384        -6.84414
   H        0.98333        -9.47646       -11.74115
   H        2.24320        -9.85900       -13.67702
   H        6.56160       -11.01772       -17.97135
   H       12.70113       -12.02058       -18.74287
*
