# ORCA input file
# SCF done       -199.463602259115          0.007251507567
! CAM-B3LYP def2-SVP def2/J RIJCOSX Grid4 TightSCF
%maxcore 5000
%tddft
    Mode sTDDFT
    Ethresh 5.0
    maxcore 5000
end

%pal
  nprocs 6
  end
* xyz 0 1
   C       -0.80629         3.69106        -4.75477
   C       -1.28265         3.52349        -3.49055
   C       -2.11072         4.59757        -3.10963
   C       -2.23776         5.55733        -4.12038
   S       -1.34548         5.15097        -5.51348
   C       -3.10622         6.59304        -3.65855
   C       -3.51075         6.27856        -2.35623
   C       -2.88924         5.01893        -1.96166
   C       -3.01990         4.36759        -0.76611
   C       -3.80198         4.87668         0.29072
   N       -4.43530         5.28604         1.15550
   C       -2.39929         3.13336        -0.49586
   N       -1.90905         2.12371        -0.25044
   C       -4.40242         7.21800        -1.82801
   C       -4.68052         8.23391        -2.71978
   S       -3.79882         8.04556        -4.22494
   C       -5.59488         9.33520        -2.52490
   S       -5.01743        10.89283        -3.16866
   C       -5.64285        11.99859        -1.95254
   C       -5.02855        13.16957        -1.63567
   S       -5.89589        14.05098        -0.44126
   C       -7.08991        12.81778        -0.35084
   C       -6.83473        11.79350        -1.20819
   S       -7.90294        10.40433        -1.37841
   C       -6.78243         9.14168        -1.89037
   C       -7.19407         7.79031        -1.61713
   C       -7.80179         7.29239        -0.52438
   C       -7.74170         5.88592        -0.27430
   C       -7.78336         5.25638         0.93598
   C       -7.19698         3.96470         0.93045
   C       -6.89829         3.16225         2.05315
   C       -7.52736         3.42814         3.32420
   C       -8.80665         3.87498         3.51986
   C       -9.13175         4.01625         4.88362
   C       -8.12087         3.68825         5.74124
   S       -6.72636         3.17812         4.84968
   C       -8.11761         3.71794         7.22522
  Cl      -10.68174         4.55773         5.40728
   C       -5.95389         2.16119         1.84776
   C       -5.45440         1.82058         0.56513
   C       -5.89749         2.50523        -0.58813
   C       -6.71452         3.60599        -0.35135
   S       -7.13286         4.81496        -1.52832
   C       -5.42933         2.15283        -1.91313
   C       -5.15401         2.97523        -2.97116
   C       -4.70405         2.27589        -4.10926
   C       -4.64335         0.92145        -3.95748
   S       -5.15098         0.48891        -2.36138
   C       -4.21571        -0.10991        -4.93503
  Cl       -4.26783         3.09108        -5.56229
   C       -4.39767         0.88921         0.64872
   C       -4.05771         0.54926         1.92606
   S       -5.14436         1.26029         3.10147
   C       -2.88951        -0.16298         2.30716
   C       -2.59160        -0.68801         3.55502
   C       -1.36402        -1.32558         3.64979
   C       -0.60400        -1.33040         2.48649
  Se       -1.47957        -0.38986         1.11213
   C        0.68949        -1.84200         2.26352
   C        1.35971        -2.79735         2.98388
   C        2.80875        -2.94631         3.00059
   C        3.70842        -2.46094         2.08654
   C        3.37582        -1.77591         0.89747
   N        3.17684        -1.23163        -0.09469
   C        5.10531        -2.63115         2.18470
   N        6.24986        -2.72689         2.20099
   C        3.13607        -3.71842         4.19484
   C        1.93618        -4.16988         4.79148
   C        1.96307        -4.90691         5.96485
   C        3.19327        -5.19087         6.53990
   C        4.37303        -4.76104         5.94825
   C        4.35840        -4.02517         4.77165
   C        0.82268        -3.73549         3.95970
   C       -0.42277        -4.30917         3.92341
   C       -0.86947        -5.26787         4.85609
   N       -1.28356        -6.02858         5.61040
   C       -1.35666        -4.05883         2.89641
   N       -2.11869        -3.92189         2.04607
   H       -0.15865         3.03791        -5.30443
   H       -1.05150         2.67502        -2.87278
   H       -4.81031         7.18268        -0.83472
   H       -4.12441        13.56403        -2.05269
   H       -7.92147        12.91665         0.31677
   H       -6.84936         7.07639        -2.35544
   H       -8.16338         7.92702         0.27192
   H       -8.09854         5.75126         1.83625
   H       -9.50824         4.05483         2.72630
   H       -9.04206         4.16262         7.58525
   H       -7.27413         4.29844         7.59574
   H       -8.03273         2.70892         7.62814
   H       -5.23559         4.04487        -2.95291
   H       -3.93700         0.36539        -5.87258
   H       -5.02175        -0.81864        -5.12277
   H       -3.36187        -0.66826        -4.55233
   H       -3.84317         0.51273        -0.19308
   H       -3.28273        -0.60910         4.37785
   H       -1.00207        -1.74105         4.57619
   H        1.23234        -1.36145         1.45721
   H        1.05205        -5.24202         6.43509
   H        3.23083        -5.75166         7.46190
   H        5.31917        -4.99729         6.41102
   H        5.28471        -3.69614         4.32890
*
