# ORCA input file
# SCF done       -211.260632052170          0.000675509254
! CAM-B3LYP def2-SVP def2/J RIJCOSX Grid4 TightSCF
%maxcore 5000
%tddft
    Mode sTDDFT
    Ethresh 5.0
    maxcore 5000
end

%pal
  nprocs 6
  end
* xyz 0 1
   C       -2.17761         0.98383         3.14285
   C       -1.07439         1.44948         2.47470
   C       -0.24725         0.63913         1.66886
   N        0.46246         0.02094         1.01259
   C       -0.58672         2.76488         2.58949
   N       -0.15003         3.82365         2.67457
   C       -2.57219        -0.41920         3.22319
   C       -3.40135        -0.59294         4.36984
   C       -3.89561        -1.81688         4.71811
   C       -3.59060        -2.93727         3.91253
   C       -2.78259        -2.76482         2.75134
   C       -2.27539        -1.48689         2.42049
   C       -2.49894        -3.88809         1.94858
   C       -2.98470        -5.12435         2.27762
   C       -3.77702        -5.29400         3.42274
   C       -4.07333        -4.22393         4.22279
   C       -3.61480         0.71263         5.01589
   O       -4.21321         0.95678         6.03833
   C       -2.98544         1.71052         4.09941
   C       -3.32801         3.02098         4.23925
   C       -3.20556         4.07697         3.31057
   C       -2.99610         4.01850         1.94028
   C       -2.97713         5.27787         1.35668
   C       -3.18776         6.31895         2.28379
   S       -3.41361         5.73601         3.86578
   C       -3.15111         7.55173         1.58498
   C       -2.90360         7.29095         0.22510
   C       -2.77426         5.85402         0.03973
   C       -2.49768         5.18187        -1.11425
   C       -2.30490         5.84845        -2.34224
   N       -2.15768         6.39407        -3.33976
   C       -2.39431         3.77478        -1.13958
   N       -2.32257         2.63048        -1.14773
   C       -2.87131         8.44492        -0.55448
   C       -3.10271         9.58407         0.19846
   S       -3.34532         9.21997         1.89746
   C       -3.19330        10.91870        -0.27748
   C       -2.99741        11.36671        -1.56617
   C       -3.22217        12.73822        -1.70187
  Cl       -3.05847        13.55358        -3.20035
   C       -3.59600        13.37877        -0.52790
   S       -3.64551        12.22654         0.77623
   C       -3.94427        14.73925        -0.34326
   C       -4.32295        15.38137         0.82820
  Cl       -4.38256        14.59219         2.34879
   C       -4.66048        16.72663         0.66562
   C       -4.54770        17.15002        -0.63980
   S       -3.99985        15.86124        -1.67385
   C       -4.84542        18.42801        -1.17636
   C       -4.73265        18.82755        -2.49666
   C       -5.15141        20.14377        -2.68089
   C       -5.58558        20.75014        -1.48920
   S       -5.47077        19.70185        -0.14333
   C       -6.01142        22.06729        -1.77888
   C       -5.84659        22.29964        -3.16414
   C       -5.29073        21.10062        -3.77077
   C       -4.96012        20.89873        -5.07727
   C       -5.10772        21.88204        -6.08072
   N       -5.20255        22.65258        -6.92358
   C       -4.42836        19.67065        -5.52798
   N       -3.99745        18.67517        -5.89926
   C       -6.26224        23.56419        -3.55867
   C       -6.74763        24.31332        -2.49362
   S       -6.66587        23.40828        -0.97050
   C       -7.27237        25.61654        -2.38359
   C       -7.54401        26.57637        -3.31948
   C       -8.08417        27.88873        -2.99221
   C       -8.30607        28.41190        -1.74350
   C       -8.83380        29.69997        -1.50890
   N       -9.26119        30.73017        -1.23597
   C       -8.04423        27.78660        -0.50642
   N       -7.86073        27.36619         0.54736
   C       -8.33562        28.59419        -4.24356
   C       -7.93243        27.75924        -5.32243
   C       -7.41732        26.48555        -4.79624
   O       -6.99507        25.56268        -5.46135
   C       -8.04162        28.15220        -6.62515
   C       -8.57331        29.42821        -6.91568
   C       -8.98376        30.27075        -5.84245
   C       -8.85683        29.83465        -4.50370
   C       -9.51515        31.54175        -6.14222
   C       -9.63518        31.96209        -7.43884
   C       -9.23023        31.13172        -8.49466
   C       -8.71055        29.89172        -8.23877
   H       -4.51463        -1.92981         5.59571
   H       -1.67628        -1.38046         1.52965
   H       -1.88583        -3.75284         1.06983
   H       -2.76042        -5.97901         1.65719
   H       -4.15223        -6.27644         3.66746
   H       -4.68377        -4.34841         5.10525
   H       -3.83332         3.26033         5.17031
   H       -2.91364         3.09457         1.39808
   H       -2.70206         8.46421        -1.61468
   H       -2.70563        10.73848        -2.38621
   H       -4.97948        17.35951         1.47356
   H       -4.36693        18.17358        -3.26765
   H       -6.23494        23.94774        -4.56354
   H       -7.50633        25.88003        -1.35876
   H       -7.72526        27.49603        -7.42235
   H       -9.17947        30.49785        -3.71741
   H       -9.82503        32.17761        -5.32586
   H      -10.04299        32.93748        -7.65813
   H       -9.33216        31.47965        -9.51173
   H       -8.39700        29.24783        -9.04736
*
