# ORCA input file
# SCF done       -189.993496362342          0.000824316603
! CAM-B3LYP def2-SVP def2/J RIJCOSX Grid4 TightSCF
%maxcore 5000
%tddft
    Mode sTDDFT
    Ethresh 5.0
    maxcore 5000
end

%pal
  nprocs 6
  end
* xyz 0 1
   C        1.51209         1.15476         2.04997
   C        0.93826         0.86144         3.38881
   C        1.78967         0.51806         4.34519
   N        2.47197         0.17015         5.54335
   C       -0.45259         1.00520         3.57015
   N       -1.58440         1.13373         3.70083
   C        2.93909         0.98402         1.64827
   C        4.11722         0.66573         2.39331
   C        5.35019         0.57936         1.79389
   C        5.54243         0.78645         0.42160
   C        4.39610         1.09454        -0.35213
   C        3.15427         1.17838         0.29020
   C        4.54556         1.30149        -1.74131
   C        5.77738         1.20401        -2.32364
   C        6.91247         0.89818        -1.55205
   C        6.80156         0.69344        -0.20554
   C        3.17062         0.34362         4.46305
   O        4.24274         0.38733         3.78014
   C        0.63270         1.59988         1.17445
   C       -0.35037         2.03518         0.43616
   C       -0.78390         3.41658         0.36074
   C       -0.20443         4.44310         1.08080
   C       -0.67319         5.75637         1.03083
   C       -1.76174         6.13261         0.25781
   C       -2.38224         5.10508        -0.50835
   C       -1.89061         3.75093        -0.46184
   N       -2.55972         2.90088        -1.23108
  Se       -3.85013         3.74739        -2.04753
   N       -3.42478         5.27879        -1.30785
   C       -2.26669         7.47329         0.21437
   C       -1.76889         8.58686         0.86831
   C       -2.51803         9.73222         0.60254
   C       -3.59850         9.48309        -0.26096
   S       -3.68427         7.84832        -0.74668
   C       -4.29327        10.70312        -0.46656
   C       -3.65304        11.71943         0.26191
   C       -2.51460        11.14087         0.96017
   C       -1.63209        11.78603         1.77642
   C       -1.73348        13.16590         2.05008
   N       -1.81485        14.28791         2.27259
   C       -0.55838        11.11353         2.39603
   N        0.31777        10.57279         2.90134
   C       -4.26767        12.96356         0.11727
   C       -5.37175        12.90023        -0.71233
   S       -5.65319        11.27444        -1.32460
   C       -6.23926        13.95454        -1.09398
   C       -7.36307        13.86531        -1.89477
   C       -7.97929        15.10389        -2.06875
   C       -7.31772        16.14554        -1.39781
   S       -5.93955        15.59868        -0.54742
   C       -8.01613        17.35603        -1.64358
   C       -9.12055        17.07647        -2.46539
   C       -9.13541        15.65326        -2.75991
   C      -10.03939        14.97636        -3.52445
   C      -11.12715        15.62296        -4.14801
   N      -12.01449        16.14272        -4.65536
   C       -9.94439        13.58610        -3.74442
   N       -9.86908        12.45640        -3.92585
   C       -9.87232        18.21106        -2.77233
   C       -9.34697        19.35105        -2.19496
   S       -7.90131        19.01506        -1.25125
   C       -9.84092        20.67686        -2.30333
   C       -9.29971        21.83194        -1.77227
   C      -10.05718        22.95905        -2.09766
   C      -11.18082        22.65576        -2.87695
   S      -11.31114        20.98810        -3.21576
   C      -11.87875        23.86608        -3.15442
   C      -11.19180        24.92621        -2.55164
   C      -10.02502        24.39929        -1.86864
   C       -9.08829        25.09750        -1.16445
   C       -9.15255        26.49848        -1.01253
   N       -9.20013        27.63697        -0.88418
   C       -7.99028        24.46434        -0.54536
   N       -7.09723        23.95239        -0.03998
   C      -11.81609        26.16817        -2.77772
   C      -12.94113        26.02679        -3.53148
   S      -13.27366        24.38801        -3.98716
   H        6.19313         0.33551         2.42337
   H        2.29519         1.41264        -0.32273
   H        3.67108         1.53650        -2.33001
   H        5.89052         1.36111        -3.38590
   H        7.87488         0.82605        -2.03603
   H        7.66839         0.45785         0.39380
   H       -0.91728         1.34531        -0.17870
   H        0.63950         4.21668         1.71566
   H       -0.16960         6.49866         1.62936
   H       -0.90401         8.56528         1.50480
   H       -3.94232        13.87550         0.58521
   H       -7.70171        12.93793        -2.32063
   H      -10.75563        18.22238        -3.38537
   H       -8.39945        21.83673        -1.18426
   H      -11.45971        27.11219        -2.40819
   H      -13.61388        26.79429        -3.85794
*
