# ORCA input file
# SCF done       -217.405669588996          0.000979444161
! CAM-B3LYP def2-SVP def2/J RIJCOSX Grid4 TightSCF
%maxcore 5000
%tddft
    Mode sTDDFT
    Ethresh 5.0
    maxcore 5000
end

%pal
  nprocs 6
  end
* xyz 0 1
   C        1.29068         2.31164         2.66518
   C       -0.06912         2.40660         2.84017
   C       -0.76495         1.83320         3.92174
   N       -1.38127         1.42025         4.79879
   C       -0.93998         3.02512         1.92368
   N       -1.69894         3.49275         1.19947
   C        2.17135         1.44420         3.44442
   C        3.37054         1.23658         2.70303
   C        4.37004         0.43152         3.16556
   C        4.21891        -0.20387         4.41953
   C        3.03065         0.01433         5.17397
   C        2.00714         0.84735         4.66447
   C        2.89571        -0.61795         6.42628
   C        3.88415        -1.43099         6.91059
   C        5.05300        -1.64707         6.16613
   C        5.21657        -1.04660         4.94711
   C        3.31036         2.02259         1.45646
   O        4.12293         2.06056         0.55929
   C        2.05664         2.81758         1.55324
   C        1.88441         3.87062         0.69699
   C        1.04368         4.99010         0.81040
   S        0.79507         6.00477        -0.60547
   C       -0.21415         7.04331         0.29938
   C       -0.32749         6.65026         1.64104
   C        0.37808         5.50044         1.92523
   C       -1.24538         7.57975         2.39748
   C       -2.47112         6.82200         2.91657
   C       -0.51751         8.29102         3.54145
   C       -1.61865         8.54714         1.29947
   C       -0.99411         8.20020         0.09658
   S       -1.37628         9.28528        -1.17428
   C       -2.38753        10.22142        -0.08935
   C       -2.40487         9.68127         1.19219
   C       -3.02824        11.38339        -0.58478
   C       -3.86446        12.16840         0.14147
   C       -4.46960        13.36200        -0.32263
   C       -4.32978        14.01906        -1.53531
   C       -5.06864        15.19910        -1.58357
   C       -5.78843        15.44811        -0.40080
   S       -5.55003        14.22721         0.76678
   C       -6.48125        16.67367        -0.54239
   C       -6.19899        17.20839        -1.81104
   C       -5.30782        16.29603        -2.51041
   C       -4.79806        16.44066        -3.76719
   C       -5.09883        17.55699        -4.57565
   N       -5.34395        18.46057        -5.23746
   C       -3.93374        15.48419        -4.33985
   N       -3.23074        14.70324        -4.79928
   C       -6.82000        18.43742        -2.03431
   C       -7.57582        18.84270        -0.94943
   S       -7.52007        17.67775         0.36977
   C       -8.32160        20.03710        -0.80294
   S       -8.29336        21.26021        -2.05828
   C       -9.32824        22.25381        -1.11406
   C       -9.67994        21.66192         0.10082
   C       -9.10855        20.41087         0.27616
   C      -10.58741        22.56882         0.89740
   C      -11.95799        21.92478         1.12433
   C       -9.94706        22.96408         2.23098
   C      -10.68188        23.75127        -0.03852
   C       -9.93211        23.52648        -1.20100
   S       -9.98606        24.84311        -2.29315
   C      -11.03107        25.72334        -1.18689
   C      -11.30208        24.98554        -0.03544
   C      -11.49510        27.01974        -1.47477
   C      -11.17844        27.74146        -2.58853
   C      -11.67620        29.04217        -2.78465
   C      -11.38492        29.84932        -3.85340
   C      -11.87509        31.19225        -4.07993
   C      -12.73434        31.90794        -3.28207
   C      -13.17314        33.21731        -3.56547
   N      -13.57003        34.28239        -3.73064
   C      -13.30707        31.45984        -2.07506
   N      -13.81539        31.17574        -1.08395
   C      -11.29117        31.67472        -5.32823
   C      -10.45956        30.65212        -5.86646
   C      -10.48800        29.47817        -4.97445
   O       -9.89147        28.43291        -5.13861
   C       -9.77379        30.81856        -7.03419
   C       -9.88975        32.04106        -7.73370
   C      -10.72077        33.06902        -7.20348
   C      -11.41911        32.86665        -5.99061
   C      -10.83043        34.28474        -7.90855
   C      -10.15189        34.47800        -9.08094
   C       -9.33305        33.46519        -9.60180
   C       -9.20500        32.27266        -8.94254
   H        5.26667         0.27985         2.58318
   H        1.12068         0.99997         5.26029
   H        1.99220        -0.45103         6.99439
   H        3.77007        -1.91267         7.87023
   H        5.82318        -2.29152         6.56296
   H        6.11464        -1.20935         4.36923
   H        2.55546         3.86573        -0.15715
   H        0.45803         5.05778         2.90166
   H       -2.17224         6.10740         3.67931
   H       -2.94873         6.27737         2.10581
   H       -3.18770         7.51712         3.34684
   H       -0.18340         7.56598         4.27931
   H       -1.18527         8.99968         4.02479
   H        0.34883         8.82954         3.16343
   H       -2.96433        10.11388         2.00080
   H       -2.81233        11.64156        -1.61170
   H       -4.09962        11.89312         1.15991
   H       -3.71078        13.65384        -2.33345
   H       -6.73620        19.02285        -2.93224
   H       -9.24003        19.78007         1.13727
   H      -11.85420        21.03124         1.73479
   H      -12.40808        21.64804         0.17370
   H      -12.61825        22.62279         1.63268
   H       -9.81673        22.08531         2.85753
   H      -10.58103        23.67647         2.75261
   H       -8.97430        23.42059         2.06286
   H      -11.92496        25.36649         0.75386
   H      -12.14686        27.46255        -0.73013
   H      -10.52492        27.31914        -3.33846
   H      -12.33603        29.42234        -2.01513
   H       -9.14893        30.02656        -7.41986
   H      -12.03888        33.66598        -5.61690
   H      -11.46217        35.06155        -7.50303
   H      -10.24240        35.41298        -9.61354
   H       -8.80425        33.63454       -10.52799
   H       -8.57587        31.48894        -9.33889
*
