# ORCA input file
# SCF done       -166.162049474556          0.000340372249
! CAM-B3LYP def2-SVP def2/J RIJCOSX Grid4 TightSCF
%maxcore 5000
%tddft
    Mode sTDDFT
    Ethresh 5.0
    maxcore 5000
end

%pal
  nprocs 6
  end
* xyz 0 1
   C       -0.86698         6.73184        -6.65567
   C       -0.54150         7.80972        -5.88584
   C       -0.65604         9.14731        -6.32352
   N       -0.74075        10.25065        -6.62737
   C        0.03130         7.73447        -4.59675
   N        0.55549         7.76161        -3.57678
   C       -1.28378         6.75054        -8.05000
   C       -1.23382         5.42035        -8.56283
   C       -1.56177         5.13645        -9.85814
   C       -1.97075         6.18473       -10.71095
   C       -2.02961         7.51560       -10.20349
   C       -1.67904         7.78179        -8.86084
   C       -2.44092         8.55286       -11.06556
   C       -2.77806         8.29114       -12.36535
   C       -2.72040         6.98063       -12.86380
   C       -2.32530         5.95056       -12.05461
   C       -0.80353         4.50364        -7.50103
   O       -0.50068         3.33367        -7.60545
   C       -0.77742         5.33061        -6.25938
   C       -0.84978         4.83805        -5.01260
   C       -0.88202         3.42020        -4.68878
   C       -1.79348         2.49208        -5.14342
   C       -2.92173         2.73044        -6.04866
   O       -3.32582         3.84849        -6.28539
   C       -3.51040         1.49590        -6.67465
   S       -1.46004         0.92230        -4.48803
   C       -0.11825         1.52048        -3.61055
   C        0.07956         2.85434        -3.79825
   C        1.09009         3.75508        -3.23454
   C        2.06556         4.37100        -3.99673
   C        2.64368         4.05170        -5.29723
   O        3.43630         4.81648        -5.81211
   C        2.26771         2.73983        -5.93179
   S        2.76505         5.72256        -3.16488
   C        1.78135         5.43928        -1.81009
   C        0.95184         4.35785        -1.95775
   C        0.08325         3.89095        -0.87540
   C       -0.94557         4.64935        -0.36774
   C       -1.48894         5.88525        -0.94291
   O       -1.31112         6.16250        -2.10866
   C       -2.30451         6.73291        -0.00720
   S       -1.69471         3.87797         0.99715
   C       -0.69272         2.51394         0.82179
   C        0.22805         2.64385        -0.18740
   C        1.09579         1.57048        -0.61596
   C        2.35513         1.72618        -1.07438
   C        3.09482         0.81809        -1.94557
   C        2.85462        -0.51216        -2.14920
   C        3.61001        -1.32018        -3.02655
   N        4.18885        -2.02280        -3.72475
   C        1.84872        -1.24799        -1.48769
   N        1.03369        -1.88217        -0.98622
   C        4.12331         1.61783        -2.59374
   C        4.22720         2.87023        -1.91938
   C        3.20272         2.93818        -0.86788
   O        3.09457         3.74156         0.03068
   C        5.11358         3.82869        -2.32131
   C        5.88962         3.60559        -3.48005
   C        5.76636         2.36863        -4.17778
   C        4.88859         1.36907        -3.70323
   C        6.52174         2.17249        -5.35145
   C        7.35155         3.15404        -5.81985
   C        7.46865         4.37229        -5.13439
   C        6.75649         4.59206        -3.98676
   H       -1.51477         4.12219       -10.22619
   H       -1.74009         8.79698        -8.50098
   H       -2.48227         9.56004       -10.67762
   H       -3.09142         9.09247       -13.01759
   H       -2.99077         6.79215       -13.89204
   H       -2.27857         4.93984       -12.43307
   H       -0.89368         5.50287        -4.15634
   H       -4.38196         1.76446        -7.26538
   H       -3.78580         0.77125        -5.91150
   H       -2.75975         1.04284        -7.32049
   H        0.45522         0.83980        -3.01543
   H        2.21748         1.94332        -5.19459
   H        3.00281         2.49704        -6.69531
   H        1.29397         2.82956        -6.41444
   H        1.86715         6.06166        -0.94186
   H       -3.18287         6.17908         0.32084
   H       -2.61671         7.64100        -0.51544
   H       -1.71649         6.98530         0.87277
   H       -0.79782         1.68246         1.49153
   H        0.62497         0.59502        -0.64761
   H        5.19839         4.76067        -1.78344
   H        4.82061         0.43849        -4.24545
   H        6.42562         1.23371        -5.87726
   H        7.91904         2.99841        -6.72508
   H        8.12248         5.13809        -5.52334
   H        6.83597         5.53057        -3.45900
*
