# ORCA input file
# SCF done       -215.032004527193          0.000490765366
! CAM-B3LYP def2-SVP def2/J RIJCOSX Grid4 TightSCF
%maxcore 5000
%tddft
    Mode sTDDFT
    Ethresh 5.0
    maxcore 5000
end

%pal
  nprocs 6
  end
* xyz 0 1
   C        1.74619        -3.59972         2.70113
   S        2.62502        -2.15312         2.95139
   C        3.18560        -2.16372         1.29561
   C        2.69809        -3.26383         0.61805
   C        1.86607        -4.07522         1.42712
   C        1.22321        -5.32267         0.92894
   S        2.04124        -6.79882         1.69269
   C        1.24446        -5.39717        -0.59429
   C        2.61543        -5.02331        -1.14693
   C        2.94657        -3.56702        -0.82605
   C        4.00793        -1.12475         0.77952
   C        4.37181        -0.02266         1.47259
   C        5.15232         1.04267         0.94805
   C        5.77086         1.15653        -0.28463
   C        6.39461         2.39339        -0.44920
   C        6.25324         3.23359         0.66687
   S        5.36798         2.49042         1.92274
   C        6.85913         4.48279         0.37203
   C        7.38985         4.42687        -0.92731
   C        7.12804         3.10995        -1.48211
   C        7.47429         2.65007        -2.71955
   C        7.14401         1.34992        -3.15363
   N        6.87219         0.29346        -3.50844
   C        8.17630         3.44689        -3.64752
   N        8.74709         4.08990        -4.40665
   C        7.94710         5.63814        -1.34078
   C        7.83641         6.61525        -0.37069
   S        7.05720         6.01977         1.08646
   C        8.17116         7.99227        -0.49818
   C        8.70733         8.61425        -1.59083
   C        8.75758        10.02321        -1.47587
   C        9.15036        10.96364        -2.45040
   C        9.67263        10.58971        -3.74924
   C       10.67262        11.21029        -4.44325
   C       10.91695        10.61785        -5.70072
   C       10.10930         9.55758        -5.99289
   S        9.01915         9.26850        -4.68092
   C       10.08385         8.70939        -7.21029
  Cl       12.14023        11.19648        -6.76482
   C        8.97414        12.30336        -2.11956
   C        8.47106        12.74705        -0.87097
   C        8.15004        11.80823         0.13067
   C        8.28572        10.46810        -0.21591
   S        7.78581         9.12723         0.77806
   C        7.66345        12.17814         1.44452
   C        7.96451        11.57146         2.63086
   C        7.28517        12.14344         3.72782
   C        6.45468        13.17541         3.40325
   S        6.51274        13.46344         1.69710
   C        5.59369        13.99570         4.29175
  Cl        7.50072        11.57279         5.33823
   C        8.30816        14.15165        -0.84016
   C        8.61972        14.76738        -2.01872
   S        9.21970        13.63780        -3.21458
   C        8.42813        16.13479        -2.35617
   C        8.65020        16.74480        -3.57314
   C        8.23005        18.07738        -3.57484
   C        7.68904        18.47974        -2.34423
   S        7.70680        17.22898        -1.18327
   C        7.24090        19.82263        -2.46177
   C        7.49378        20.26232        -3.76787
   C        8.13218        19.18729        -4.50996
   C        8.53465        19.21530        -5.81286
   C        9.14479        18.10755        -6.43769
   N        9.63786        17.20987        -6.95330
   C        8.35164        20.35292        -6.62675
   N        8.19006        21.27066        -7.29532
   C        7.05047        21.56582        -4.00280
   C        6.46647        22.12516        -2.88554
   S        6.46350        21.01456        -1.52077
   C        5.86202        23.40867        -2.72982
   S        4.65347        23.61376        -1.49812
   C        4.39868        25.27538        -1.94210
   C        5.21350        25.63456        -2.99370
   C        6.05939        24.58568        -3.43003
   C        7.07939        24.78361        -4.50544
   S        8.74702        24.19727        -3.96463
   C        7.18053        26.23746        -4.95612
   C        5.78986        26.84539        -5.08127
   C        5.17200        26.95820        -3.69086
   C        3.40649        26.00758        -1.19897
   C        3.26410        27.32884        -1.12320
   H        1.18993        -4.03114         3.50978
   H        0.19966        -5.40687         1.30349
   H        3.28739        -6.45782         1.37298
   H        0.49495        -4.70306        -0.98423
   H        0.97011        -6.40500        -0.90944
   H        2.63040        -5.17047        -2.22771
   H        3.37486        -5.67862        -0.71392
   H        2.31716        -2.90902        -1.43528
   H        3.98607        -3.35633        -1.08581
   H        4.32608        -1.24298        -0.24633
   H        4.02793         0.09383         2.49218
   H        5.76140         0.37698        -1.02332
   H        8.38986         5.81287        -2.30344
   H        9.02968         8.07726        -2.46177
   H       11.24681        12.03596        -4.06603
   H       10.92225         8.96727        -7.85284
   H        9.15709         8.86071        -7.76418
   H       10.14646         7.65501        -6.94434
   H        8.67170        10.76999         2.73658
   H        5.75680        13.70585         5.32677
   H        4.54137        13.85201         4.04701
   H        5.82269        15.05456         4.17794
   H        7.94413        14.69735         0.01075
   H        9.08119        16.22671        -4.41109
   H        7.12455        22.06010        -4.95163
   H        6.85279        24.14826        -5.36642
   H        8.83980        25.02397        -2.92424
   H        7.71642        26.27894        -5.90495
   H        7.75359        26.81073        -4.22255
   H        5.16563        26.21294        -5.71585
   H        5.85185        27.83267        -5.54063
   H        4.13610        27.29782        -3.75889
   H        5.73028        27.69904        -3.10915
   H        2.73548        25.37613        -0.62905
   H        3.91976        28.02146        -1.61708
   H        2.47776        27.75944        -0.52792
*
