# ORCA input file
# SCF done       -144.509105197153          0.000828921572
! CAM-B3LYP def2-SVP def2/J RIJCOSX Grid4 TightSCF
%maxcore 5000
%tddft
    Mode sTDDFT
    Ethresh 5.0
    maxcore 5000
end

%pal
  nprocs 6
  end
* xyz 0 1
   C        6.08451        -2.92370         0.85290
   C        5.62682        -2.90469        -0.45969
   N        4.46835        -3.43694        -0.79396
   C        3.74410        -4.03470         0.15355
   C        4.26327        -4.12412         1.45936
   N        5.39873        -3.55603         1.79272
   C        2.49309        -4.64896        -0.22410
   C        2.28307        -5.31491        -1.39425
   C        0.98811        -5.95203        -1.32788
   C        0.40476        -6.68866        -2.36399
   N       -0.07065        -7.30603        -3.20786
   C        0.43400        -5.70962        -0.09272
   C        1.32533        -4.86835         0.64083
   C        1.08811        -4.25943         1.86054
   C        0.16553        -4.70401         2.92825
   C        0.15407        -3.71369         3.89134
   C        1.02959        -2.66543         3.47902
   C        1.62521        -3.01304         2.27967
   C        1.23920        -1.47528         4.18879
   N        1.40393        -0.50418         4.77838
   C       -0.43857        -5.97549         2.98216
   C       -1.22785        -6.43288         3.99920
   C       -1.83809        -7.70593         4.03170
   C       -2.50634        -8.15673         5.16369
   C       -3.11171        -9.39171         5.28985
   C       -3.13739       -10.34781         4.18762
   C       -2.56267       -10.12907         2.98430
   S       -1.71748        -8.69354         2.58240
   C       -3.84695       -11.47924         4.68289
   C       -4.22773       -11.27035         6.01166
   C       -4.93785       -12.38194         6.52330
   C       -5.06393       -13.36978         5.59900
   S       -4.33627       -13.00404         4.07430
   C       -3.76744        -9.96645         6.42424
   C       -3.85211        -9.35336         7.67624
   C       -4.33551        -9.94230         8.82095
   C       -4.35113        -9.33490        10.08434
   C       -4.19653        -7.99486        10.39386
   C       -4.47011        -7.81837        11.77653
   C       -4.40172        -6.59170        12.45133
   N       -4.34812        -5.58104        12.99295
   C       -4.81100        -9.03985        12.34564
   C       -4.70776       -10.03484        11.34842
   C       -4.78116       -11.40427        11.53267
   C       -5.43401       -12.10969        12.64839
   C       -5.15641       -13.44211        12.51137
   C       -4.32461       -13.62236        11.34803
   C       -4.12558       -12.40045        10.74697
   C       -3.81600       -14.84807        10.90611
   N       -3.40791       -15.85409        10.53018
   C       -6.31908       -11.50553        13.59783
   C       -6.65628       -12.06480        14.77568
   C       -7.54814       -11.49594        15.75545
   C       -8.23535       -10.27631        15.61293
   N       -9.02769        -9.80909        16.55283
   C       -9.17328       -10.52258        17.65955
   C       -8.50841       -11.73431        17.81430
   N       -7.71216       -12.20562        16.87813
   H        6.99826        -2.43704         1.15974
   H        6.18552        -2.43432        -1.25669
   H        3.75107        -4.67739         2.23506
   H        2.96373        -5.38472        -2.22078
   H       -0.55864        -5.98880         0.20457
   H       -0.39432        -3.70961         4.81398
   H        2.28665        -2.39017         1.70886
   H       -0.22737        -6.65195         2.16597
   H       -1.40746        -5.80198         4.85809
   H       -2.52578        -7.47658         6.00439
   H       -2.58821       -10.85295         2.18551
   H       -5.35142       -12.47147         7.51071
   H       -5.55062       -14.31756         5.71998
   H       -3.44747        -8.35396         7.75461
   H       -4.71769       -10.94714         8.75654
   H       -3.96438        -7.19404         9.71795
   H       -4.98631        -9.20401        13.39135
   H       -5.51465       -14.24694        13.12454
   H       -3.47215       -12.22040         9.91470
   H       -6.73144       -10.54625        13.31798
   H       -6.22775       -13.01214        15.07057
   H       -8.14725        -9.66584        14.72545
   H       -9.82582       -10.11590        18.41816
   H       -8.61455       -12.33783        18.70542
*
