# ORCA input file
# SCF done       -204.327273656385          0.000833341411
! CAM-B3LYP def2-SVP def2/J RIJCOSX Grid4 TightSCF
%maxcore 5000
%tddft
    Mode sTDDFT
    Ethresh 5.0
    maxcore 5000
end

%pal
  nprocs 6
  end
* xyz 0 1
   C       -2.25024        -1.00064        -2.12625
   C       -2.26938        -0.99640        -3.49904
   C       -1.44069        -1.80620        -4.30379
   N       -0.80562        -2.43640        -5.02359
   C       -3.07672        -0.18587        -4.32364
   N       -3.67748         0.44108        -5.07674
   C       -1.34075        -1.79536        -1.30965
   C       -1.54128        -1.45501         0.04982
   C       -0.82251        -2.02134         1.07457
   C        0.14020        -2.97840         0.74131
   C        0.32988        -3.32023        -0.61902
   C       -0.39475        -2.74247        -1.65498
   S        1.56391        -4.52819        -0.79615
   C        1.81051        -4.56248         0.91604
   C        1.01050        -3.71250         1.59559
   C       -2.60703        -0.44487         0.15511
   O       -3.01673         0.03988         1.18963
   C       -3.06784        -0.19661        -1.23210
   C       -4.12697         0.56541        -1.65221
   C       -4.99076         1.42419        -0.95024
   C       -5.00866         1.88266         0.36143
   C       -6.06371         2.74719         0.60513
   C       -6.88524         2.96834        -0.53571
   S       -6.32998         2.11181        -1.89713
   C       -7.93040         3.83607        -0.17689
   C       -7.77919         4.17205         1.18804
   C       -6.59736         3.50140         1.71714
   C       -6.12103         3.58506         2.99415
   C       -4.95770         2.93174         3.45620
   N       -4.02104         2.44529         3.90399
   C       -6.74968         4.35304         3.99638
   N       -7.23115         4.96483         4.83984
   C       -8.75958         5.01827         1.66138
   C       -9.70134         5.35713         0.68191
   S       -9.30926         4.59133        -0.86350
   C      -10.84208         6.16238         0.77934
   C      -11.31742         6.77556         1.92302
   C      -12.47024         7.58634         2.04964
   C      -12.70920         8.04776         3.31774
   C      -11.75601         7.62417         4.25891
   S      -10.55054         6.62797         3.48389
   C      -11.59167         7.83064         5.62351
   C      -12.31722         8.55235         6.58844
   C      -11.77803         8.47677         7.84461
   C      -10.60298         7.69250         7.93312
   S      -10.20969         7.05545         6.35757
   C       -9.83105         7.42345         9.04465
   C       -8.67424         6.63607         9.06643
   C       -7.88243         6.36079        10.19163
   C       -6.80135         5.55454         9.88815
   C       -6.74973         5.19557         8.51834
   S       -8.03266         5.85779         7.61837
   C       -5.62577         4.37824         8.30347
   C       -4.94615         4.21779         9.53439
   C       -5.66713         4.93730        10.56533
   C       -5.36005         4.99077        11.89451
   C       -6.14523         5.70876        12.81896
   N       -6.77922         6.29873        13.57108
   C       -4.23065         4.32570        12.41533
   N       -3.30532         3.78853        12.82841
   C       -3.82857         3.40272         9.42660
   C       -3.64537         2.92455         8.13476
   S       -4.87271         3.53872         7.02799
   C       -2.62088         2.09880         7.62674
   C       -1.74550         1.31379         8.31723
   C       -1.71357         0.82791         9.68017
   C       -2.79195         0.52750        10.47344
   C       -2.68866        -0.09610        11.73409
   N       -2.66255        -0.61161        12.75905
   C       -4.13300         0.70881        10.08515
   N       -5.24264         0.81217         9.80727
   C       -0.33696         0.43912         9.96855
   C        0.39924         0.44245         8.75630
   C       -0.47468         0.89520         7.65798
   O       -0.21222         0.96310         6.47987
   C        1.72574         0.08875         8.70123
   C        2.35594        -0.27105         9.89659
   C        1.61543        -0.25331        11.10300
   C        0.27072         0.09535        11.15947
   S        2.60201        -0.71663        12.45285
   C        3.96734        -0.93149        11.41273
   C        3.70564        -0.66821        10.11401
   H       -0.99905        -1.73122         2.09864
   H       -0.21110        -3.03990        -2.67357
   H        2.55191        -5.22879         1.31241
   H        1.02232        -3.59631         2.66416
   H       -4.36702         0.50036        -2.70700
   H       -4.27832         1.57290         1.08773
   H       -8.78452         5.37879         2.66999
   H      -11.41540         6.30823        -0.12654
   H      -13.09460         7.80720         1.20176
   H      -13.54208         8.67280         3.58683
   H      -13.20706         9.10439         6.34305
   H      -12.19353         8.96348         8.70950
   H      -10.14089         7.85627         9.98669
   H       -8.11423         6.74646        11.16828
   H       -3.14638         3.19396        10.23054
   H       -2.45976         2.13912         6.55346
   H        2.26173         0.09239         7.76479
   H       -0.25209         0.10688        12.10160
   H        4.89695        -1.24590        11.84593
   H        4.43203        -0.74614         9.32533
*
