# ORCA input file
# SCF done       -158.306052694820          0.000456711899
! CAM-B3LYP def2-SVP def2/J RIJCOSX Grid4 TightSCF
%maxcore 5000
%tddft
    Mode sTDDFT
    Ethresh 5.0
    maxcore 5000
end

%pal
  nprocs 6
  end
* xyz 0 1
   C       -9.14317        -0.19283         2.78951
   N       -9.15751        -1.36931         2.23548
   N       -8.27969        -1.74569         1.33231
   C       -7.30207        -0.96817         0.90425
   C       -7.18039         0.35092         1.44106
   C       -8.14970         0.75072         2.42823
   N       -7.85597         1.98725         2.78268
   O       -6.78628         2.32851         2.06997
   N       -6.36085         1.36390         1.25681
   C       -6.41550        -1.48564        -0.07784
   C       -5.33072        -0.86438        -0.66973
   C       -4.70980        -1.69871        -1.59450
   C       -5.34057        -2.96549        -1.69665
   S       -6.68525        -3.11973        -0.65738
   C       -4.64998        -3.73269        -2.65440
   C       -3.58060        -2.96239        -3.16534
   C       -3.58824        -1.66003        -2.50694
   C       -2.70837        -0.63711        -2.71847
   C       -1.64745        -0.75415        -3.63919
   N       -0.78530        -0.86175        -4.38862
   C       -2.79392         0.59421        -2.03545
   N       -2.84876         1.60073        -1.48948
   C       -2.83949        -3.61886        -4.13001
   C       -3.31690        -4.90835        -4.38311
   S       -4.72776        -5.27681        -3.38159
   C       -2.89457        -5.89381        -5.28114
   C       -1.79933        -5.90604        -6.12054
   C       -0.71581        -5.01485        -6.29120
   C        0.17873        -5.40105        -7.24753
   C       -0.15063        -6.61352        -7.88652
   S       -1.62344        -7.26463        -7.22214
   C        0.53630        -7.25585        -8.90748
   C        1.72686        -6.86035        -9.54786
   C        2.13042        -7.71674       -10.53121
   C        1.27991        -8.83156       -10.72121
   S       -0.05293        -8.75079        -9.58833
   C        1.47008        -9.81964       -11.66442
   C        0.66942       -10.93834       -11.91304
   C       -0.50065       -11.36908       -11.27928
   C       -0.99697       -12.53456       -11.83172
   C       -0.21983       -13.02719       -12.90465
   S        1.13492       -12.03257       -13.22036
   C       -0.81464       -14.20890       -13.38690
   C       -1.97669       -14.47367       -12.61715
   C       -2.12614       -13.43418       -11.62182
   C       -3.10644       -13.30658       -10.68041
   C       -3.13145       -12.23537        -9.76307
   N       -3.15758       -11.36673        -9.01452
   C       -4.16272       -14.23400       -10.55587
   N       -5.02803       -14.97726       -10.44141
   C       -2.63383       -15.63193       -13.02011
   C       -1.98457       -16.23887       -14.08008
   S       -0.54393       -15.38133       -14.59766
   C       -2.34106       -17.43161       -14.76424
   N       -1.57752       -17.83031       -15.76506
   N       -1.81481       -18.91837       -16.46369
   C       -2.82403       -19.70441       -16.22925
   C       -3.73015       -19.40454       -15.18203
   C       -3.48456       -18.21346       -14.41089
   N       -4.43305       -18.12611       -13.50293
   O       -5.21629       -19.18633       -13.69194
   N       -4.81761       -19.96798       -14.69113
   H       -9.90596         0.02384         3.51965
   H       -5.03424         0.13961        -0.42263
   H       -2.00980        -3.18283        -4.65050
   H       -3.52735        -6.77149        -5.32776
   H       -0.59282        -4.12391        -5.70549
   H        1.06041        -4.84165        -7.50329
   H        2.25307        -5.96403        -9.27404
   H        3.01412        -7.57970       -11.12885
   H        2.34417        -9.70993       -12.29363
   H       -0.95225       -10.84888       -10.45643
   H       -3.53237       -16.03404       -12.58673
   H       -2.93456       -20.57452       -16.85584
*
