# ORCA input file
# SCF done       -196.012275490189          0.000806773256
! CAM-B3LYP def2-SVP def2/J RIJCOSX Grid4 TightSCF
%maxcore 5000
%tddft
    Mode sTDDFT
    Ethresh 5.0
    maxcore 5000
end

%pal
  nprocs 6
  end
* xyz 0 1
   C       -8.90442         1.88229         2.89725
   C      -10.18375         2.35041         2.63690
   C      -11.19012         1.49112         2.21861
   C      -10.94896         0.13483         2.05686
   C       -9.67592        -0.34428         2.31460
   C       -8.64617         0.53050         2.73083
   C       -7.41833        -0.23464         2.89709
   C       -6.24202         0.23146         3.42258
   C       -6.05076         1.55044         3.88691
   N       -5.82492         2.60400         4.28215
   C       -5.07749        -0.53891         3.61906
   N       -4.10319        -1.11609         3.81456
   C       -7.69338        -1.57958         2.40037
   C       -9.13724        -1.69291         2.24953
   C       -9.86816        -2.84841         2.29728
   C       -9.30285        -4.12420         2.48381
   N       -8.87921        -5.17644         2.66593
   C      -11.27599        -2.89565         2.23622
   N      -12.41785        -3.00068         2.19040
   C       -6.72379        -2.48090         2.06104
   C       -6.83619        -3.61179         1.22175
   C       -6.01058        -4.70792         1.15042
   C       -6.44553        -5.59357         0.09485
   N       -7.54965        -5.03826        -0.48045
   C       -7.83866        -3.82073         0.14557
   O       -8.74498        -3.09956        -0.20546
   C       -8.48914        -5.58982        -1.42115
   C       -5.64273        -6.72217         0.12140
   C       -4.74116        -6.53572         1.31563
   O       -3.92628        -7.31003         1.74894
   N       -4.98371        -5.27064         1.83779
   C       -4.32363        -4.74693         3.00394
   C       -5.43042        -7.88302        -0.62873
   C       -5.70423        -8.16065        -1.95097
   C       -5.44903        -9.38613        -2.60689
   C       -5.74734        -9.37985        -3.94144
   C       -6.24220        -8.14621        -4.40159
   S       -6.29781        -6.98769        -3.10383
   C       -6.69120        -7.78589        -5.66961
   C       -6.70936        -8.55406        -6.84678
   C       -7.25190        -7.88344        -7.90583
   C       -7.68629        -6.56948        -7.60820
   S       -7.37411        -6.20129        -5.93322
   C       -8.27583        -5.73510        -8.54287
   C       -8.76201        -4.43858        -8.39179
   C       -9.35848        -3.61724        -9.33955
   C       -9.70747        -2.37500        -8.73224
   N       -9.34379        -2.40011        -7.41637
   C       -8.76625        -3.62576        -7.13556
   O       -8.35250        -3.93271        -6.03737
   C       -9.56282        -1.37524        -6.42993
   C      -10.36745        -1.57912        -9.64664
   C      -10.36400        -2.36433       -10.91193
   O      -10.74922        -2.04223       -12.01485
   N       -9.74194        -3.58634       -10.64636
   C       -9.60362        -4.62095       -11.63256
   C      -10.84039        -0.26559        -9.46057
   C      -11.75182         0.43263       -10.20685
   C      -11.85423         1.88686       -10.20853
   C      -11.31834         2.76034        -9.29725
   C      -10.58730         2.39749        -8.14800
   N       -9.98670         2.17203        -7.19418
   C      -11.46137         4.16243        -9.36578
   N      -11.53754         5.30776        -9.35458
   C      -12.63884         2.24989       -11.38082
   C      -13.12620         1.06937       -11.98673
   C      -13.88504         1.13089       -13.14282
   C      -14.15694         2.37608       -13.69045
   C      -13.68798         3.53687       -13.09221
   C      -12.92616         3.48781       -11.93423
   C      -12.70320        -0.06854       -11.18562
   C      -13.28459        -1.30781       -11.19072
   C      -14.26566        -1.71584       -12.11711
   N      -15.06585        -2.10684       -12.84105
   C      -13.03189        -2.29821       -10.22265
   N      -12.87909        -3.12036        -9.43508
   H       -8.13349         2.56585         3.21322
   H      -10.39512         3.40201         2.75676
   H      -12.17471         1.88231         2.01246
   H      -11.73362        -0.52332         1.72086
   H       -5.71952        -2.27727         2.40571
   H       -8.47085        -6.67557        -1.37134
   H       -8.27446        -5.25442        -2.43738
   H       -9.48058        -5.22594        -1.14645
   H       -3.66276        -5.52625         3.38143
   H       -5.05750        -4.48604         3.76807
   H       -3.73378        -3.86268         2.75787
   H       -4.86327        -8.63946        -0.09535
   H       -5.06734       -10.23812        -2.07315
   H       -5.62849       -10.22677        -4.59267
   H       -6.33146        -9.55947        -6.89467
   H       -7.35763        -8.29738        -8.89343
   H       -8.37679        -6.16061        -9.53429
   H      -10.62217        -1.11927        -6.38202
   H       -8.98875        -0.47671        -6.66166
   H       -9.23895        -1.77056        -5.46801
   H      -10.01053        -4.23192       -12.56590
   H      -10.16530        -5.50964       -11.33776
   H       -8.55270        -4.87971       -11.77587
   H      -10.35743         0.26942        -8.65482
   H      -14.24541         0.23441       -13.62040
   H      -14.73992         2.44021       -14.59654
   H      -13.91321         4.49502       -13.53516
   H      -12.56478         4.39946       -11.48744
*
