# ORCA input file
# SCF done       -208.439667698354          0.000507418177
! CAM-B3LYP def2-SVP def2/J RIJCOSX Grid4 TightSCF
%maxcore 5000
%tddft
    Mode sTDDFT
    Ethresh 5.0
    maxcore 5000
end

%pal
  nprocs 6
  end
* xyz 0 1
   C        1.24695         4.79363         3.06929
   C        1.42586         4.13537         4.25911
   C        2.67561         3.97996         4.89489
   N        3.65979         3.82596         5.46531
   C        0.41156         3.49425         5.00101
   N       -0.35094         2.93257         5.65105
   C        2.31061         5.36798         2.25496
   C        1.74897         5.83439         1.04216
   C        2.49788         6.42577         0.05412
   C        3.87193         6.56426         0.27415
   C        4.42584         6.09928         1.49139
   C        3.66693         5.50091         2.48963
   S        6.13975         6.37541         1.55923
   C        6.09020         7.09927        -0.02657
   C        4.85469         7.13416        -0.58024
  Br        7.67285         7.74230        -0.79936
   C        0.29468         5.58868         1.04111
   O       -0.47685         5.90075         0.15966
   C       -0.00605         4.97145         2.35622
   C       -1.24330         4.76757         2.90450
   C       -2.51131         4.80839         2.29253
   C       -2.90022         4.73777         0.96070
   C       -4.27899         4.78629         0.81405
   C       -4.96638         4.89954         2.04416
   S       -3.91013         4.90594         3.37480
   C       -6.35182         4.99586         1.77535
   C       -6.54700         4.93864         0.38413
   C       -5.25268         4.78298        -0.26465
   C       -5.01491         4.64290        -1.59924
   C       -3.72191         4.44353        -2.13151
   N       -2.68765         4.25313        -2.58689
   C       -6.06023         4.65987        -2.54806
   N       -6.90909         4.67347        -3.31845
   C       -7.88660         5.05188         0.01848
   C       -8.71306         5.19766         1.11888
   S       -7.82161         5.18330         2.63071
   C      -10.12039         5.37370         1.11432
   C      -10.95805         5.53177         2.19851
   C      -12.28348         5.71900         1.80607
   C      -12.46631         5.70415         0.41719
   S      -10.98046         5.44723        -0.41569
   C      -13.79845         5.92020         0.05568
   C      -14.62888         6.09989         1.16938
   S      -13.76582         5.99244         2.67778
   C      -15.96264         6.34286         0.84013
   C      -16.15986         6.35078        -0.52467
   S      -14.67957         6.04567        -1.41949
   C      -17.36731         6.59141        -1.22939
   C      -17.54676         6.59848        -2.60113
   C      -18.86142         6.89840        -2.95261
   C      -19.69046         7.12256        -1.83942
   S      -18.84857         6.95761        -0.36099
   C      -20.99215         7.44277        -2.29787
   C      -20.98293         7.41600        -3.70788
   C      -19.64652         7.07843        -4.16398
   C      -19.22190         6.98882        -5.45666
   C      -17.89114         6.66055        -5.79111
   N      -16.81156         6.38463        -6.05999
   C      -20.10197         7.22192        -6.53488
   N      -20.83213         7.40985        -7.39882
   C      -22.20638         7.76182        -4.26389
   C      -23.15745         8.06043        -3.29865
   S      -22.51538         7.86586        -1.67012
   C      -24.50553         8.43860        -3.47577
   C      -25.10332         8.94323        -4.59110
   C      -24.59243         9.51056        -5.82177
   C      -23.42425        10.20953        -5.98561
   C      -23.06147        10.86358        -7.18199
   N      -22.72274        11.41843        -8.12741
   C      -22.49356        10.44519        -4.95549
   N      -21.71965        10.68752        -4.14237
   C      -25.67386         9.46010        -6.80025
   C      -26.87654         9.11287        -6.13409
   C      -26.58695         8.86119        -4.70950
   O      -27.36681         8.59548        -3.82454
   C      -28.08114         9.02440        -6.78889
   C      -28.09568         9.27636        -8.16498
   C      -26.88491         9.60238        -8.82323
   C      -25.66773         9.70157        -8.16027
   S      -27.12955         9.85666       -10.52336
   C      -28.83205         9.53297       -10.33080
   C      -29.20029         9.24593        -9.05938
  Br      -29.96149         9.60174       -11.82567
   H        2.03723         6.76763        -0.85938
   H        4.13578         5.16821         3.40044
   H        4.64280         7.54471        -1.55055
   H       -1.27953         4.57199         3.97002
   H       -2.19834         4.66080         0.15179
   H       -8.26031         5.03824        -0.98957
   H      -10.61723         5.51655         3.21760
   H      -16.74891         6.51069         1.55320
   H      -16.74859         6.39751        -3.29307
   H      -22.42207         7.76064        -5.31671
   H      -25.17591         8.24674        -2.64361
   H      -28.98422         8.76778        -6.25780
   H      -24.76810         9.94234        -8.70214
   H      -30.20852         9.02126        -8.76291
*
