# ORCA input file
# SCF done       -212.113278087086          0.000492400752
! CAM-B3LYP def2-SVP def2/J RIJCOSX Grid4 TightSCF
%maxcore 5000
%tddft
    Mode sTDDFT
    Ethresh 5.0
    maxcore 5000
end

%pal
  nprocs 6
  end
* xyz 0 1
   C       -0.88262         2.89983        -0.03366
   C       -1.03450         3.86090        -0.99324
   F       -0.62113         5.11406        -0.76251
   C       -1.62573         3.54910        -2.23415
   F       -1.76226         4.51225        -3.15558
   C       -2.05708         2.27948        -2.49840
   C       -1.91471         1.26710        -1.52973
   C       -1.31631         1.58051        -0.27484
   C       -1.15906         0.58017         0.71170
   C       -1.58664        -0.69537         0.45064
   C       -2.18875        -0.99548        -0.80110
   C       -2.35438        -0.05264        -1.77397
   C       -2.57549        -2.41895        -0.83696
   O       -3.12692        -2.97706        -1.76149
   C       -2.20108        -2.96958         0.48700
   C       -1.54871        -1.91777         1.24837
   C       -0.93114        -2.03962         2.46678
   C       -0.79533        -3.22921         3.21338
   N       -0.62147        -4.15319         3.87351
   C       -0.30142        -0.97182         3.14117
   N        0.22224        -0.14868         3.74605
   C       -2.50705        -4.20312         1.00029
   C       -3.04150        -5.35098         0.38826
   C       -3.26657        -5.69341        -0.94107
   C       -3.76455        -6.98040        -1.07383
   C       -3.93555        -7.64317         0.16569
   S       -3.46162        -6.68263         1.48245
   C       -4.45741        -8.93255        -0.08308
   C       -4.61154        -9.09678        -1.47188
   C       -4.17785        -7.87733        -2.13975
   C       -4.15824        -7.64523        -3.48278
   C       -4.60351        -8.61327        -4.40877
   N       -4.96787        -9.40077        -5.15836
   C       -3.68435        -6.44391        -4.05475
   N       -3.28886        -5.49094        -4.55330
   C       -5.11326       -10.34859        -1.81744
   C       -5.34913       -11.13723        -0.70305
   S       -4.94041       -10.31933         0.79530
   C       -5.85781       -12.45891        -0.68107
   C       -6.16660       -13.22882         0.42605
   C       -6.65339       -14.48472         0.06825
   C       -6.70690       -14.67467        -1.32558
   S       -6.16881       -13.30665        -2.19218
   C       -7.20931       -15.97103        -1.58859
   C       -7.48804       -16.60055        -0.35992
   C       -7.14041       -15.68882         0.72097
   C       -7.24273       -15.91448         2.06139
   C       -7.72637       -17.12901         2.59382
   N       -8.11451       -18.10944         3.04299
   C       -6.86541       -14.94133         3.01151
   N       -6.56089       -14.14876         3.78207
   C       -8.00120       -17.88178        -0.51557
   C       -8.11540       -18.24321        -1.85313
   S       -7.56795       -16.96711        -2.92874
   C       -8.61782       -19.48082        -2.31739
   C       -8.73689       -19.94885        -3.62677
   C       -9.27117       -21.24248        -3.67709
   S       -9.56715       -22.21597        -5.10063
   C       -8.61043       -21.31352        -6.36013
   C       -8.98360       -19.85060        -6.38656
   S       -8.23902       -18.95295        -4.98592
   C       -9.60499       -21.76052        -2.41076
   S       -9.22556       -20.61877        -1.14977
   C      -10.13654       -23.04402        -2.24296
   C      -10.56090       -23.67943        -1.10295
   C      -11.09673       -25.02400        -1.02409
   C      -11.16033       -25.95399        -2.03041
   C      -11.68901       -27.25227        -1.87149
   N      -12.10637       -28.31990        -1.80836
   C      -10.70080       -25.77444        -3.35199
   N      -10.34809       -25.71992        -4.44397
   C      -11.53968       -25.23707         0.35117
   C      -11.24602       -24.07595         1.10899
   C      -10.60939       -23.08005         0.23313
   O      -10.21223       -21.97561         0.56350
   C      -11.54160       -23.96285         2.44548
   C      -12.16400       -25.05030         3.06730
   C      -12.45669       -26.20598         2.30429
   C      -12.15318       -26.31974         0.95246
   S      -13.22992       -27.42750         3.26713
   C      -13.15117       -26.38408         4.66220
   C      -12.57507       -25.18219         4.42166
  Br      -13.83825       -26.97923         6.30212
   H       -0.42663         3.15534         0.91010
   H       -2.50748         2.05602        -3.45280
   H       -0.70663         0.85263         1.65116
   H       -2.81263        -0.31309        -2.71588
   H       -2.32036        -4.33699         2.05959
   H       -3.07656        -5.01385        -1.75201
   H       -5.30721       -10.68664        -2.81947
   H       -6.04149       -12.87517         1.43385
   H       -8.28630       -18.54222         0.28365
   H       -8.86897       -21.80280        -7.29919
   H       -7.54768       -21.45184        -6.15962
   H      -10.06477       -19.71317        -6.35626
   H       -8.57879       -19.35646        -7.26980
   H      -10.22935       -23.59492        -3.17197
   H      -11.30186       -23.06454         2.99235
   H      -12.39899       -27.22151         0.41738
   H      -12.44503       -24.41866         5.16668
*
