# ORCA input file
# SCF done       -251.063643497477          0.000402357589
! CAM-B3LYP def2-SVP def2/J RIJCOSX Grid4 TightSCF
%maxcore 5000
%tddft
    Mode sTDDFT
    Ethresh 5.0
    maxcore 5000
end

%pal
  nprocs 6
  end
* xyz 0 1
   C        0.00953         3.11620        -0.68379
   C        0.50017         3.95870         0.27869
   C       -0.24490         4.42076         1.38564
   N       -0.79370         4.82792         2.30667
   C        1.78368         4.53765         0.23253
   N        2.81266         5.04664         0.22031
   C       -1.39249         2.70931        -0.79942
   C       -1.63255         2.27104        -2.11567
   C       -2.88109         1.85087        -2.52369
   C       -3.91603         1.86448        -1.59070
   C       -3.68336         2.29763        -0.28089
   C       -2.42356         2.72276         0.12618
   C       -4.84120         2.38488         0.67827
   O       -5.63480         3.28593         0.66481
   O       -4.81125         1.39301         1.55919
   C       -5.89552         1.35117         2.48033
   C       -5.27944         1.37346        -1.92949
   O       -6.08413         1.01937        -1.10379
   O       -5.49995         1.35144        -3.24322
   C       -6.78327         0.89478        -3.65005
   C       -0.37366         2.32219        -2.88833
   O       -0.20373         2.07217        -4.05777
   C        0.67615         2.69709        -1.89778
   C        1.98169         2.51997        -2.24863
   C        3.12830         2.42749        -1.43387
   C        3.22579         2.16810        -0.07284
   C        4.54354         2.11389         0.35843
   C        5.47212         2.32787        -0.68237
   S        4.71581         2.57457        -2.18429
   C        6.77638         2.26526        -0.13530
   C        6.67653         2.01798         1.24600
   C        5.26866         1.92689         1.60293
   C        4.73282         1.73698         2.84231
   C        5.53738         1.57473         3.98978
   N        6.19923         1.43556         4.91534
   C        3.33587         1.69070         3.03802
   N        2.19850         1.65020         3.17639
   C        7.91761         1.92702         1.87249
   C        8.96062         2.09966         0.97829
   S        8.39710         2.38835        -0.66003
   C       10.35090         2.04458         1.24800
   C       11.38691         2.19645         0.34316
   C       12.63280         2.05148         0.94953
   C       12.54414         1.78935         2.32854
   S       10.92840         1.72498         2.87735
   C       13.85569         1.63920         2.84467
   C       14.77347         1.80522         1.79156
   C       14.03594         2.07322         0.56695
   C       14.54991         2.28927        -0.67707
   C       15.93929         2.27569        -0.92487
   N       17.06819         2.26025        -1.12315
   C       13.72405         2.53421        -1.79498
   N       13.05006         2.72980        -2.70138
   C       16.09795         1.65693         2.19710
   C       16.19643         1.37865         3.54921
   S       14.62382         1.30538         4.33234
   C       17.37842         1.14733         4.29558
   C       17.48100         0.86694         5.64836
   C       18.80394         0.67799         6.04015
   C       19.71479         0.81568         4.97725
   S       18.94213         1.18169         3.49774
   C       21.02207         0.60249         5.47223
   C       20.94206         0.32255         6.85307
   C       19.54596         0.36392         7.25358
   C       19.03246         0.14760         8.49767
   C       19.84973        -0.16664         9.60491
   N       20.50844        -0.43004        10.50511
   C       17.64625         0.21354         8.75475
   N       16.51914         0.26423         8.95805
   C       22.18506         0.07653         7.42297
   C       23.22077         0.19938         6.50655
   S       22.61951         0.57949         4.89165
   C       24.58390        -0.05605         6.77187
   C       25.68719         0.24489         6.03299
   C       25.91312         1.15644         4.93237
   C       25.30625         2.37047         4.74978
   C       25.64817         3.27661         3.72449
   N       25.87523         4.04297         2.90160
   C       24.33610         2.88471         5.63554
   N       23.57308         3.34317         6.36015
   C       27.12060         0.70675         4.24126
   C       27.75684        -0.26842         5.03352
   C       26.93988        -0.53587         6.23915
   O       27.19495        -1.26484         7.16689
   C       28.94954        -0.84386         4.64943
   C       29.51591        -0.44080         3.44067
   C       28.87796         0.51487         2.64235
   C       27.67748         1.09631         3.03457
   C       29.45869         0.86881         1.29758
   O       29.21882         0.24807         0.29767
   O       30.17314         1.98430         1.36617
   C       30.81629         2.38518         0.16163
   C       30.81301        -0.99025         2.96243
   O       31.44519        -0.51392         2.05203
   O       31.19935        -2.06215         3.65377
   C       32.42946        -2.65033         3.25165
   H       -3.05004         1.51584        -3.53482
   H       -2.26978         3.04254         1.14432
   H       -6.82309         1.14926         1.94212
   H       -5.98528         2.30525         3.00319
   H       -5.67144         0.54746         3.17650
   H       -7.56127         1.53935        -3.23612
   H       -6.95001        -0.12636        -3.30069
   H       -6.78891         0.93555        -4.73615
   H        2.14102         2.35838        -3.31110
   H        2.37083         1.97991         0.55038
   H        8.07207         1.74167         2.92043
   H       11.22395         2.39761        -0.70047
   H       16.95695         1.74073         1.55575
   H       16.62552         0.80708         6.29704
   H       22.35690        -0.15792         8.45807
   H       24.77445        -0.65961         7.65486
   H       29.43320        -1.58285         5.26832
   H       27.19748         1.82049         2.39562
   H       30.09442         2.43227        -0.65595
   H       31.59684         1.66520        -0.08984
   H       31.24421         3.36466         0.35751
   H       32.56126        -3.53170         3.87354
   H       33.25140        -1.94734         3.40102
   H       32.38936        -2.92481         2.19578
*
