# ORCA input file
# SCF done       -204.783511248999          0.000562443504
! CAM-B3LYP def2-SVP def2/J RIJCOSX Grid4 TightSCF
%maxcore 5000
%tddft
    Mode sTDDFT
    Ethresh 5.0
    maxcore 5000
end

%pal
  nprocs 6
  end
* xyz 0 1
   C        0.05796         2.06845        -5.97959
   C        0.80383         3.21291        -6.09583
   C        1.17748         3.78044        -7.33007
   N        1.48929         4.28627        -8.31205
   C        1.35890         3.88002        -4.98546
   N        1.85342         4.41746        -4.09949
   C       -0.28599         1.16841        -7.07466
   C       -0.54821        -0.12300        -6.52939
   C       -0.85884        -1.18684        -7.32608
   C       -0.93596        -1.00058        -8.72496
   C       -0.69178         0.29184        -9.27367
   C       -0.36182         1.37407        -8.42522
   C       -0.78152         0.46443       -10.66972
   C       -1.09428        -0.58778       -11.48676
   C       -1.33283        -1.85998       -10.94597
   C       -1.25459        -2.06205        -9.59470
   C       -0.44389        -0.06320        -5.06041
   O       -0.54469        -0.96707        -4.26366
   C       -0.25924         1.38404        -4.74522
   C       -0.51853         1.81931        -3.48279
   C       -0.85689         3.10635        -3.00841
   C       -0.93515         3.46612        -1.67014
   C       -1.39184         4.76732        -1.49613
   C       -1.69430         5.40625        -2.71671
   S       -1.40341         4.41009        -4.06354
   C       -2.18035         6.70647        -2.43941
   C       -2.18717         6.89243        -1.04552
   C       -1.69985         5.67816        -0.40745
   C       -1.59973         5.43811         0.93130
   C       -1.99727         6.39023         1.89370
   N       -2.34292         7.15293         2.67707
   C       -1.12613         4.21171         1.44449
   N       -0.74899         3.21653         1.87028
   C       -2.65361         8.14821        -0.66484
   C       -3.01385         8.91776        -1.75938
   S       -2.75033         8.08029        -3.28121
   C       -3.54111        10.23690        -1.74908
   C       -4.07873        10.92767        -0.66578
   O       -4.20289        10.38675         0.58859
   C       -5.27699         9.47309         0.74592
   C       -4.47654        12.24102        -1.00276
   O       -5.01825        13.20272        -0.22730
   C       -5.07961        13.02297         1.17466
   C       -4.25084        12.54640        -2.34303
   S       -3.55546        11.20340        -3.19005
   C       -4.54280        13.77876        -2.96865
   C       -4.26554        14.14829        -4.27631
   C       -4.68973        15.44589        -4.54567
   C       -5.30538        16.05901        -3.43819
   S       -5.34039        15.04539        -2.05930
   C       -5.71145        17.35977        -3.81459
   C       -5.33514        17.58291        -5.15876
   C       -4.69470        16.38020        -5.66372
   C       -4.21750        16.15615        -6.92078
   C       -4.30959        17.10968        -7.95822
   N       -4.38900        17.85659        -8.82379
   C       -3.61651        14.93109        -7.28159
   N       -3.12963        13.93605        -7.57753
   C       -5.67050        18.85038        -5.61675
   C       -6.31653        19.60389        -4.64532
   S       -6.51550        18.69472        -3.13907
   C       -6.88229        20.89366        -4.68336
   C       -6.63194        21.92149        -5.54999
   C       -7.36395        23.17386        -5.56597
   C       -8.61198        23.38938        -5.03948
   C       -9.29509        24.62075        -5.11100
   N       -9.89665        25.59861        -5.12852
   C       -9.39925        22.40789        -4.40242
   N      -10.10211        21.65597        -3.89226
   C       -6.58478        24.13779        -6.33119
   C       -5.44416        23.47210        -6.86310
   C       -5.45160        22.05989        -6.44118
   O       -4.62009        21.22211        -6.71848
   C       -4.52140        24.12345        -7.62926
   C       -4.69922        25.49913        -7.89964
   C       -5.83492        26.17383        -7.36568
   C       -6.77594        25.47110        -6.57835
   C       -5.99747        27.54784        -7.63524
   C       -5.08312        28.22516        -8.39530
   C       -3.96539        27.56004        -8.92066
   C       -3.77827        26.22587        -8.67928
   H       -1.04472        -2.15954        -6.89549
   H       -0.18948         2.34500        -8.86339
   H       -0.59361         1.44494       -11.08190
   H       -1.15908        -0.44550       -12.55506
   H       -1.57902        -2.67897       -11.60508
   H       -1.43709        -3.03942        -9.17247
   H       -0.56941         1.03378        -2.73358
   H       -0.64961         2.79893        -0.87687
   H       -2.70741         8.51117         0.34473
   H       -6.24225         9.97936         0.63691
   H       -5.18106         9.07569         1.75410
   H       -5.22141         8.65568         0.02192
   H       -5.33744        14.00118         1.57751
   H       -4.12045        12.69338         1.57683
   H       -5.85434        12.30300         1.44868
   H       -3.77673        13.48932        -4.97108
   H       -5.46770        19.22363        -6.60304
   H       -7.59020        21.08647        -3.88485
   H       -3.66569        23.59568        -8.02343
   H       -7.62146        26.01026        -6.18129
   H       -6.86063        28.05498        -7.22959
   H       -5.21634        29.27773        -8.59574
   H       -3.25309        28.11011        -9.51727
   H       -2.91957        25.70846        -9.08143
*
