# ORCA input file
# SCF done       -206.816369772423          0.000807037517
! CAM-B3LYP def2-SVP def2/J RIJCOSX Grid4 TightSCF
%maxcore 5000
%tddft
    Mode sTDDFT
    Ethresh 5.0
    maxcore 5000
end

%pal
  nprocs 6
  end
* xyz 0 1
   C        0.67298         1.22414         1.93699
   C       -0.56677         1.61758         2.37012
   C       -1.13495         1.21035         3.59593
   N       -1.64721         0.90712         4.57683
   C       -1.46302         2.39067         1.60790
   N       -2.23696         2.99679         1.01418
   C        1.51060         0.23199         2.60298
   C        2.43766        -0.29236         1.65486
   C        3.32392        -1.27645         1.98686
   C        3.33051        -1.78059         3.30688
   C        2.42191        -1.24393         4.26499
   C        1.51110        -0.22897         3.89177
   C        2.44538        -1.74924         5.58067
   C        3.31976        -2.74077         5.93398
   C        4.21214        -3.27020         4.98973
   C        4.21763        -2.80029         3.70435
   C        2.26247         0.40180         0.36941
   O        2.82697         0.19719        -0.68005
   C        1.26241         1.48031         0.63855
   C        1.13580         2.48741        -0.26646
   C        0.55515         3.76559        -0.09656
   C        0.32524         4.46936         1.07704
   C       -0.25998         5.70614         0.83934
   C       -0.47640         5.95518        -0.53228
   S        0.06888         4.68023        -1.51748
   C       -1.11282         7.21163        -0.66604
   C       -1.30680         7.75462         0.62503
   C       -0.77634         6.82460         1.60822
   C       -0.78251         6.95056         2.96711
   C       -1.31785         8.08503         3.61138
   N       -1.74802         9.01459         4.12670
   C       -0.24873         5.94585         3.80093
   N        0.19067         5.12092         4.46538
   C       -1.95394         8.98150         0.59710
   C       -2.27662         9.37153        -0.69927
   S       -1.73849         8.20116        -1.89888
   C       -2.98464        10.53130        -1.07916
   C       -3.30403        11.66138        -0.18745
   N       -4.00133        12.59996        -0.74622
   C       -4.21793        12.18652        -2.03140
   C       -3.55472        10.90103        -2.28129
   C       -3.86021        10.44097        -3.60847
   S       -3.44925         8.99094        -4.27912
   C       -4.70105        11.47310        -4.16176
   C       -4.91249        12.53030        -3.16206
   N       -5.77816        13.47707        -3.63151
   C       -6.13652        13.06863        -4.80943
   C       -5.51210        11.80636        -5.22848
   C       -5.74212        11.14900        -6.45817
   C       -4.99706        10.12072        -7.01576
   C       -5.53645         9.67966        -8.21721
   C       -6.71126        10.37125        -8.58012
   S       -7.12517        11.58593        -7.45615
   C       -7.20958         9.81356        -9.78033
   C       -6.34610         8.76866       -10.18219
   C       -5.25011         8.67597        -9.23075
   C       -4.16458         7.85509        -9.29062
   C       -3.94741         6.94740       -10.35160
   N       -3.73241         6.21722       -11.20818
   C       -3.14022         7.87762        -8.31757
   N       -2.28951         7.89121        -7.54970
   C       -6.77639         8.11406       -11.32761
   C       -7.96647         8.63910       -11.81509
   S       -8.53131         9.99875       -10.83337
   C       -8.76155         8.31400       -12.93480
   C       -8.73267         7.22434       -13.75893
   C       -9.58905         7.06667       -14.92560
   C      -10.32813         8.04489       -15.53946
   C      -11.12891         7.82759       -16.68112
   N      -11.80638         7.71995       -17.60155
   C      -10.37986         9.40282       -15.16012
   N      -10.45905        10.52567       -14.92975
   C       -9.46699         5.69061       -15.38957
   C       -8.50028         5.02753       -14.58281
   C       -7.98922         5.95098       -13.55882
   O       -7.16646         5.68619       -12.70853
   C       -8.15585         3.72251       -14.78794
   C       -8.78048         3.00324       -15.83058
   C       -9.75867         3.65483       -16.63669
   C      -10.09148         5.00859       -16.40085
   C      -10.38145         2.92498       -17.66967
   C      -10.05310         1.61635       -17.89839
   C       -9.08801         0.97708       -17.10575
   C       -8.46496         1.65585       -16.09375
   H        4.01188        -1.66636         1.25148
   H        0.84277         0.16874         4.63937
   H        1.75414        -1.34066         6.30293
   H        3.32814        -3.12331         6.94354
   H        4.89550        -4.05191         5.28585
   H        4.90275        -3.20385         2.97321
   H        1.59601         2.29394        -1.23109
   H        0.60954         4.10155         2.04620
   H       -2.20802         9.56272         1.46449
   H       -2.98815        11.75065         0.83668
   H       -6.81917        13.64310        -5.41189
   H       -4.11461         9.72564        -6.54598
   H       -6.27625         7.28336       -11.79080
   H       -9.52997         9.05129       -13.13766
   H       -7.41518         3.24757       -14.16187
   H      -10.83896         5.46972       -17.02641
   H      -11.12258         3.42148       -18.27866
   H      -10.53542         1.06624       -18.69237
   H       -8.84105        -0.05575       -17.30075
   H       -7.72121         1.16962       -15.47968
*
