# ORCA input file
# SCF done       -197.016440370254          0.000809049907
! CAM-B3LYP def2-SVP def2/J RIJCOSX Grid4 TightSCF
%maxcore 5000
%tddft
    Mode sTDDFT
    Ethresh 5.0
    maxcore 5000
end

%pal
  nprocs 6
  end
* xyz 0 1
   C        4.49378        -1.23192         2.05720
   C        4.63857        -1.07892         3.43885
   C        4.76748         0.34481         3.91468
   O        4.99176         1.23101         3.13791
   O        4.60974         0.60609         5.21385
   C        4.67730        -2.21404         4.26713
   C        4.82875        -2.15195         5.67153
   N        4.93827        -2.16701         6.81459
   C        4.56979        -3.49989         3.71886
   C        4.42061        -3.62315         2.35781
   C        4.37650        -2.49802         1.51427
   C        4.21279        -2.95935         0.13357
   C        4.18939        -2.15154        -0.97293
   C        4.23678        -0.74063        -0.93564
   N        4.25042         0.40516        -0.98956
   C        4.12635        -2.60711        -2.30733
   N        4.09498        -2.90058        -3.41703
   C        4.14933        -4.40456         0.16300
   C        4.25083        -4.85123         1.54935
   O        4.11657        -5.98464         1.98324
   C        3.87156        -5.21984        -0.91576
   C        3.98979        -6.60603        -1.01232
   C        4.70950        -7.57792        -0.31584
   C        4.60157        -8.89041        -0.84176
   C        5.44549        -9.78063        -0.12196
   C        6.17095        -9.19518         0.86550
   S        5.81708        -7.48728         0.99641
   C        7.13687        -9.84598         1.78508
   F        5.56213       -11.09242        -0.40600
   C        3.74465        -8.96936        -1.94650
   S        3.16474        -7.38147        -2.36194
   C        3.28550       -10.08091        -2.67524
   C        2.44835       -10.07543        -3.78380
   C        2.08390       -11.35426        -4.27358
   C        1.27701       -11.21103        -5.44078
   C        1.02088        -9.92913        -5.80428
   S        1.77053        -8.78317        -4.71109
   C        0.22788        -9.45812        -6.96605
   F        0.82227       -12.24861        -6.16581
   C        2.64295       -12.39077        -3.52519
   S        3.64190       -11.73615        -2.25086
   C        2.47745       -13.80251        -3.59319
   C        3.37831       -14.65522        -2.98538
   C        3.24637       -16.03434        -2.92455
   C        2.07643       -16.71440        -3.48084
   C        1.07947       -16.07796        -4.13815
   S        1.03144       -14.38921        -4.39652
   C        2.26490       -18.09023        -3.18413
   C        3.47060       -18.27395        -2.49751
   C        3.70122       -19.63955        -2.21469
   C        2.69120       -20.42676        -2.66920
   S        1.42339       -19.55969        -3.46411
   C        4.10711       -16.99173        -2.33198
   C        5.36216       -16.69151        -1.77395
   C        6.14339       -17.55097        -1.05121
   C        7.44467       -17.28034        -0.59127
   C        8.38851       -16.44739        -1.14665
   C        9.69904       -16.21199        -0.57942
   C       10.03986       -16.33748         0.74431
   C       11.32549       -16.07045         1.25449
   N       12.35528       -15.86703         1.72014
   C        9.13645       -16.69224         1.76729
   N        8.44750       -16.94109         2.65206
   C       10.57049       -15.72808        -1.64280
   C        9.79221       -15.55954        -2.81288
   C        8.38693       -15.92715        -2.53211
   O        7.46556       -15.84377        -3.31870
   C       10.32739       -15.12720        -4.00118
   C       11.69924       -14.85393        -4.03715
   C       12.46887       -15.02652        -2.86267
   C       11.92542       -15.45835        -1.65832
   S       14.14236       -14.64399        -3.13342
   C       13.78981       -14.26297        -4.79802
   C       12.48713       -14.41262        -5.13556
  Br       15.17551       -13.70802        -5.93455
   H        4.47706        -0.33583         1.45626
   H        4.47265        -0.16598         5.78377
   H        4.60397        -4.37287         4.35306
   H        3.48736        -4.74579        -1.81010
   H        7.22802       -10.90208         1.54209
   H        6.80233        -9.74781         2.81720
   H        8.11581        -9.37500         1.70572
   H       -0.13477       -10.31060        -7.53546
   H        0.83851        -8.82960        -7.61328
   H       -0.62251        -8.86488        -6.63156
   H        4.24888       -14.19842        -2.53367
   H        0.23337       -16.60043        -4.55606
   H        4.56386       -20.03900        -1.71491
   H        2.60654       -21.49296        -2.58934
   H        5.71515       -15.68213        -1.91650
   H        5.72167       -18.49540        -0.73746
   H        7.76701       -17.87298         0.25816
   H        9.70981       -15.00874        -4.87776
   H       12.55271       -15.58257        -0.79132
   H       12.09647       -14.22297        -6.11868
*
