# ORCA input file
# SCF done       -203.985958914657          0.000597829876
! CAM-B3LYP def2-SVP def2/J RIJCOSX Grid4 TightSCF
%maxcore 5000
%tddft
    Mode sTDDFT
    Ethresh 5.0
    maxcore 5000
end

%pal
  nprocs 6
  end
* xyz 0 1
   C       13.42783         0.07391         9.38982
   C       13.33575         0.42212        10.70773
   F       14.46057         0.53693        11.44529
   C       12.10941         0.67284        11.33449
   C       10.95931         0.57243        10.60114
   C       10.99616         0.22896         9.23558
   C       12.25384        -0.03092         8.62019
   C       12.31574        -0.38993         7.25329
   C       11.15869        -0.47161         6.52993
   C        9.90592        -0.17726         7.14018
   C        9.81579         0.15375         8.46003
   C        8.83465        -0.28683         6.12288
   O        7.64246        -0.12971         6.28756
   C        9.53209        -0.56881         4.85177
   C       10.90733        -0.86514         5.14492
   C       11.75698        -1.64319         4.38932
   C       11.34861        -2.30362         3.21533
   N       11.02531        -2.89600         2.28511
   C       13.08571        -1.92720         4.74636
   N       14.18856        -2.15790         4.97413
   C        8.86627        -0.44950         3.64952
   C        9.41130        -0.19337         2.39285
   S       11.03315         0.41402         2.19373
   C       10.92219         0.47107         0.46459
   C        9.63289         0.06320         0.04714
   C        8.78048        -0.29092         1.13124
   C        7.47170        -0.72739         0.87803
   C        7.03576        -0.79221        -0.41828
   F        5.78349        -1.19668        -0.68156
   C        7.87874        -0.44107        -1.49030
   F        7.41003        -0.52166        -2.74779
   C        9.16258        -0.01973        -1.27097
   C       12.02547         0.83606        -0.31441
   C       13.22233         1.18266         0.25858
   C       14.43832         1.48303        -0.36108
   S       15.78844         1.86086         0.70562
   C       14.82053         1.49736        -1.70647
   C       16.16673         1.77097        -1.88474
   C       17.15701         1.93283        -2.96204
   C       16.96285         1.80047        -4.28834
   C       18.02160         2.11719        -5.30550
   N       18.70568         0.88263        -5.68108
   C       15.67303         1.31895        -4.88824
   N       14.87433         2.47194        -5.29667
   C       16.81668         2.00560        -0.64711
   C       18.15654         2.29192        -0.87787
   S       19.54264         2.59983         0.07306
   C       18.41360         2.25995        -2.26753
   C       19.75935         2.46297        -2.53684
   C       20.52929         2.66496        -1.38611
   C       21.91122         2.87083        -1.27679
   C       22.51179         2.99695        -0.04575
   C       23.85365         3.16883         0.26325
   C       24.27325         3.23772         1.58518
   C       25.57139         3.39072         2.10389
   C       25.63360         3.40602         3.47498
   C       24.38474         3.26707         4.09935
   S       23.12307         3.11696         2.90115
   C       24.05152         3.24093         5.44936
   C       24.87833         3.34379         6.58242
   C       24.19570         3.29166         7.76557
   C       22.79463         3.14665         7.63394
   S       22.38440         3.06567         5.92878
   C       21.88763         3.11611         8.66866
   C       20.48612         3.00762         8.61221
   C       19.63901         3.14445         9.72467
   C       18.29871         3.04376         9.29512
   C       17.09953         3.17667         9.96858
   C       15.91888         3.07638         9.22180
   C       14.58483         3.22958         9.58170
   C       13.76656         3.04672         8.42591
   C       14.59581         2.76722         7.35160
   C       15.95195         2.79332         7.79562
   C       17.13645         2.65252         7.12265
   C       18.32973         2.79860         7.86240
   C       19.65149         2.77958         7.46400
   C       12.32906         3.15025         8.35738
   C       11.53321         3.51453         9.35869
   H       14.39008        -0.11656         8.94064
   H       12.09671         0.93838        12.37998
   H       10.00199         0.76206        11.06306
   H       13.28061        -0.58250         6.81142
   H        8.85596         0.35735         8.91085
   H        7.78395        -0.46809         3.71828
   H        6.80955        -1.01129         1.67912
   H        9.78807         0.23849        -2.10943
   H       11.91604         0.81135        -1.38799
   H       13.25135         1.20731         1.34184
   H       14.10246         1.29969        -2.48038
   H       17.52166         2.50224        -6.19884
   H       18.69192         2.90200        -4.92497
   H       19.18764         0.49140        -4.87811
   H       19.39242         1.06570        -6.40419
   H       15.15783         0.64264        -4.19076
   H       15.91836         0.75134        -5.79049
   H       14.61126         3.02088        -4.48439
   H       14.02563         2.16587        -5.75949
   H       20.22428         2.46105        -3.50579
   H       22.49516         2.91045        -2.18575
   H       21.84778         2.94092         0.81077
   H       24.59612         3.24158        -0.51890
   H       26.42882         3.48427         1.46064
   H       26.54498         3.51368         4.03607
   H       25.94474         3.45615         6.50200
   H       24.66097         3.35809         8.73361
   H       22.31059         3.22191         9.66113
   H       19.96018         3.32206        10.73464
   H       17.06545         3.36601        11.03183
   H       14.22726         3.45334        10.56977
   H       14.27932         2.57365         6.34283
   H       17.17169         2.45632         6.06045
   H       19.99656         2.61269         6.46125
   H       11.89945         2.91586         7.39112
   H       11.91443         3.76697        10.33293
   H       10.46665         3.57913         9.23333
*
