# ORCA input file
# SCF done       -207.672475125193          0.000692706250
! CAM-B3LYP def2-SVP def2/J RIJCOSX Grid4 TightSCF
%maxcore 5000
%tddft
    Mode sTDDFT
    Ethresh 5.0
    maxcore 5000
end

%pal
  nprocs 6
  end
* xyz 0 1
   C       -5.74919        -2.71436         2.04737
   C       -6.55619        -3.81521         1.92100
   C       -6.15928        -5.12645         2.25330
   N       -5.88532        -6.21012         2.51530
   C       -7.86430        -3.78371         1.39248
   N       -8.91686        -3.83954         0.93776
   C       -4.35122        -2.71393         2.45753
   C       -3.83142        -1.40665         2.29039
   C       -2.53196        -1.08474         2.59780
   C       -1.70542        -2.10087         3.08934
   C       -2.23474        -3.40312         3.25348
   C       -3.54972        -3.72909         2.94472
   S       -1.04574        -4.50179         3.88418
   C        0.13032        -3.21507         3.91830
   C       -0.34031        -2.02359         3.47931
  Br        1.86807        -3.56514         4.53042
   C       -4.89492        -0.50862         1.79500
   O       -4.80309         0.69018         1.63510
   C       -6.10673        -1.35880         1.68617
   C       -7.37245        -0.87883         1.51372
   C       -7.69855         0.39792         0.98448
   C       -8.83738         1.09680         1.45129
   C       -9.14940         2.42452         1.00588
   N      -10.18998         3.07652         1.52797
   C      -10.93051         2.48372         2.44178
   C      -10.63063         1.15465         2.87155
   N       -9.60262         0.50417         2.38472
   C      -11.45058         0.52828         3.84593
   N      -12.13345         0.06509         4.63971
   C      -12.03050         3.18632         2.99008
   N      -12.92463         3.73781         3.44776
   C       -8.36629         3.09954         0.00798
   C       -7.30691         2.33505        -0.54321
   C       -6.97475         1.01747        -0.05726
   N       -5.97567         0.47431        -0.74811
   S       -5.46676         1.51309        -1.85413
   N       -6.51074         2.70301        -1.54049
   C       -8.69468         4.41983        -0.30407
   C       -8.18342         5.30799        -1.23266
   C       -8.65235         6.64216        -1.32460
   C       -8.06731         7.38423        -2.30648
   C       -7.11987         6.65571        -3.05263
   S       -6.96676         5.01808        -2.44578
   C       -6.38660         7.10756        -4.13857
   C       -6.36028         8.41055        -4.68276
   C       -5.55095         8.54770        -5.76868
   C       -4.89798         7.34928        -6.15211
   S       -5.34684         6.04365        -5.05151
   C       -4.06122         7.18797        -7.21903
   N       -3.47608         6.00671        -7.53768
   C       -2.71877         5.71108        -8.62659
   S       -1.65639         4.33848        -8.52526
   C       -1.06669         4.69432       -10.11893
   N       -0.09666         3.82355       -10.63990
   O        0.36638         4.07311       -11.73273
   O        0.21078         2.88168        -9.92890
   C       -1.64738         5.79236       -10.68477
   C       -2.61489         6.39406        -9.84891
   C       -3.45206         7.48334       -10.26430
   C       -3.13359         8.36332       -11.24151
   C       -4.02640         9.38891       -11.64288
   C       -3.91490        10.24353       -12.69467
   C       -3.02357        10.28870       -13.83627
   C       -2.41073         9.22461       -14.44478
   C       -1.62385         9.33668       -15.61135
   N       -0.96591         9.37722       -16.55024
   C       -2.56553         7.88023       -14.04891
   N       -2.68340         6.76898       -13.78615
   C       -3.07901        11.64557       -14.37162
   C       -4.13094        12.34940       -13.73044
   C       -4.74561        11.48086       -12.71069
   O       -5.68723        11.72307       -11.99073
   C       -4.45435        13.64592       -14.05088
   C       -3.69938        14.28160       -15.04191
   C       -2.64185        13.57543       -15.66583
   C       -2.31879        12.26211       -15.34734
   S       -1.83236        14.55277       -16.85099
   C       -2.91147        15.87753       -16.50215
   C       -3.83093        15.60419       -15.54545
  Br       -2.72033        17.49534       -17.43007
   H       -2.16324        -0.07973         2.46446
   H       -3.91144        -4.73264         3.09536
   H        0.24876        -1.12582         3.43444
   H       -8.21703        -1.46588         1.85354
   H       -9.50434         4.81554         0.29914
   H       -9.40936         7.01194        -0.65587
   H       -8.30670         8.41193        -2.51155
   H       -6.93442         9.21164        -4.25483
   H       -5.40671         9.46439        -6.31136
   H       -3.82101         8.03679        -7.83974
   H       -3.56688         5.26999        -6.84498
   H       -1.43647         6.10498       -11.69213
   H       -4.42881         7.55420        -9.80342
   H       -2.15895         8.32057       -11.70226
   H       -4.88140         9.57384       -10.99924
   H       -5.26458        14.15451       -13.55246
   H       -1.50045        11.76820       -15.84441
   H       -4.57162        16.30579       -15.20782
*
