# ORCA input file
# SCF done       -188.903973246238          0.000363633764
! CAM-B3LYP def2-SVP def2/J RIJCOSX Grid4 TightSCF
%maxcore 5000
%tddft
    Mode sTDDFT
    Ethresh 5.0
    maxcore 5000
end

%pal
  nprocs 6
  end
* xyz 0 1
   C       -2.98919        -0.02705        -4.81428
   C       -3.25550        -1.36117        -4.59933
   C       -2.41907        -2.41975        -5.00223
   N       -1.79185        -3.34399        -5.27355
   C       -4.38706        -1.89490        -3.96235
   N       -5.27186        -2.45886        -3.48760
   C       -1.87461         0.48800        -5.60543
   C       -1.96540         1.90069        -5.64992
   C       -1.07807         2.67801        -6.35090
   C       -0.04910         2.03001        -7.04430
   C        0.03631         0.61956        -6.99069
   C       -0.86274        -0.16732        -6.27967
   S        1.37707         0.02512        -7.92352
   C        1.79538         1.65793        -8.36930
   C        0.97730         2.60106        -7.84552
  Br        3.26976         1.96360        -9.48793
   C       -3.13644         2.33758        -4.85907
   O       -3.50453         3.48345        -4.69083
   C       -3.74819         1.09777        -4.34186
   C       -4.84106         1.05128        -3.50112
   C       -5.53033         2.15440        -3.00952
   C       -6.61626         2.02168        -2.16374
   C       -7.38457         3.05648        -1.57951
   C       -8.40383         2.61384        -0.78736
   C       -8.47984         1.20681        -0.71070
   S       -7.22854         0.46581        -1.67435
   C       -9.36794         0.41027        -0.00909
   C      -10.49394         0.76417         0.76571
   C      -11.17037        -0.29855         1.28801
   C      -10.60232        -1.55466         0.96389
   S       -9.16889        -1.32049        -0.04283
   C      -11.01025        -2.81050         1.31951
   N      -10.28273        -3.89166         0.94825
   C      -10.53647        -5.20310         1.13523
   S      -12.03092        -5.77158         1.80362
   C      -11.47560        -7.40522         1.59426
   N      -12.33034        -8.43005         1.99662
   O      -11.94967        -9.57909         1.84955
   O      -13.40522        -8.09228         2.46920
   C      -10.22020        -7.49471         1.05032
   C       -9.65047        -6.23942         0.78143
   C       -8.33533        -5.97925         0.26331
   C       -7.47897        -6.91591        -0.18289
   N       -6.20088        -6.70966        -0.64026
   C       -5.46345        -5.58279        -0.78127
   S       -6.05215        -3.97805        -0.51217
   C       -4.49742        -3.32907        -0.92726
   N       -4.36037        -1.94654        -0.87775
   O       -3.32187        -1.45282        -1.28326
   O       -5.30473        -1.31606        -0.42305
   C       -3.57752        -4.29051        -1.23955
   C       -4.10023        -5.59501        -1.15433
   C       -3.35698        -6.80013        -1.36089
   C       -2.00900        -6.87959        -1.43200
   C       -1.28220        -8.10088        -1.56986
   C        0.13457        -8.07073        -1.51428
   C        0.93142        -9.26851        -1.63022
   N        2.27994        -9.19644        -1.55002
   C        2.83579        -8.03210        -1.36554
   C        2.04153        -6.83569        -1.25283
   N        0.73637        -6.88415        -1.32862
   C        2.67826        -5.58706        -1.04459
   N        3.22623        -4.59638        -0.86934
   C        4.24878        -7.94206        -1.26166
   N        5.38396        -7.82868        -1.16502
   C        0.34507       -10.51422        -1.81251
   C       -1.04172       -10.56802        -1.86408
   C       -1.86120        -9.37808        -1.73691
   N       -3.16410        -9.67952        -1.79937
   S       -3.32783       -11.26615        -2.00264
   N       -1.78654       -11.67111        -2.01735
   H       -1.17541         3.75222        -6.36957
   H       -0.75690        -1.23944        -6.27087
   H        1.09001         3.65602        -8.01712
   H       -5.18998         0.07779        -3.17782
   H       -5.20654         3.14700        -3.28665
   H       -7.15659         4.09199        -1.75982
   H       -9.08501         3.25459        -0.25627
   H      -10.77825         1.79117         0.90785
   H      -12.05297        -0.22024         1.89690
   H      -11.90264        -2.98073         1.90155
   H       -9.42781        -3.67430         0.44336
   H       -9.74918        -8.44376         0.87513
   H       -8.01881        -4.94952         0.26791
   H       -7.76557        -7.95638        -0.20384
   H       -5.70217        -7.55061        -0.90656
   H       -2.57044        -4.05267        -1.52826
   H       -3.90571        -7.72902        -1.43525
   H       -1.39359        -5.99676        -1.34687
   H        0.95103       -11.39930        -1.90072
*
