# ORCA input file
# SCF done       -220.352249876599          0.000775241958
! CAM-B3LYP def2-SVP def2/J RIJCOSX Grid4 TightSCF
%maxcore 5000
%tddft
    Mode sTDDFT
    Ethresh 5.0
    maxcore 5000
end

%pal
  nprocs 6
  end
* xyz 0 1
   C       -1.55756         2.32698        -2.42589
   C       -1.80741         2.30205        -3.77481
   C       -0.96722         1.66384        -4.70737
   N       -0.29386         1.18893        -5.50801
   C       -2.86481         2.98068        -4.41668
   N       -3.68556         3.52179        -5.01104
   C       -0.42120         1.70265        -1.76968
   C       -0.33807         2.20256        -0.44876
   C        0.64753         1.82145         0.42795
   C        1.58589         0.88580        -0.01643
   C        1.46933         0.35865        -1.32525
   C        0.47897         0.75266        -2.21547
   S        2.72170        -0.79770        -1.65798
   C        3.38532        -0.54737        -0.06610
   C        2.69830         0.34636         0.68322
  Br        4.91342        -1.49860         0.44985
   C       -1.46266         3.12383        -0.19295
   O       -1.64971         3.73235         0.83621
   C       -2.30051         3.07705        -1.42261
   C       -3.60556         3.43734        -1.58021
   C       -4.50003         4.17938        -0.74293
   C       -5.88150         4.01773        -0.98573
   C       -6.79766         4.72496        -0.25128
   C       -6.35263         5.65702         0.70637
   C       -4.99715         5.83834         0.94745
   C       -4.08115         5.10054         0.23025
   C       -7.49499         6.37227         1.21760
   C       -8.65355         5.90016         0.57429
   C       -8.31096         4.75933        -0.36688
   C       -8.66509         5.05488        -1.83961
   C      -10.14547         5.12035        -2.19427
   C       -8.96299         3.47696         0.19231
   C       -8.66451         2.19685        -0.57709
   C       -9.86848         6.49506         0.82816
   C       -9.91445         7.64648         1.62659
   C       -8.76408         8.06085         2.30891
   C       -7.56066         7.41421         2.13333
   C      -11.07062         8.52372         1.52518
   C      -10.82723         9.82506         1.26935
   C      -11.68764        10.83684         0.75646
   C      -11.14385        11.74203        -0.11262
   C      -11.72537        12.80574        -0.85486
   C      -10.89714        13.36864        -1.77888
   C       -9.61624        12.76802        -1.84413
   S       -9.46177        11.54376        -0.61137
   C       -8.58116        12.89953        -2.74649
   C       -8.39516        13.75200        -3.85619
   C       -7.27069        13.47952        -4.57574
   C       -6.51291        12.37910        -4.09073
   S       -7.24962        11.75813        -2.63310
   C       -5.40500        11.81787        -4.67311
   C       -4.74276        10.64789        -4.26186
   C       -3.65217        10.06359        -4.92000
   C       -3.08738        10.67017        -6.04915
   N       -2.66609        11.21842        -6.96528
   C       -3.23203         8.85312        -4.31555
   C       -4.00324         8.54952        -3.19910
   S       -5.24028         9.70017        -2.86822
   S       -3.57892         7.07506        -2.38182
   C       -2.33250         6.84823        -3.55633
   C       -2.24714         7.84325        -4.53275
   C       -1.23759         7.54707        -5.47308
   C       -0.90752         8.32585        -6.59641
   N       -0.61429         8.92775        -7.52632
   C       -0.55534         6.36277        -5.18856
   S       -1.18153         5.59132        -3.74445
   C        0.40190         5.78883        -6.05591
   C        1.24810         4.73361        -5.92178
   C        1.74011         3.95973        -4.80443
   C        1.92290         4.41486        -3.52207
   C        2.46433         3.63959        -2.48035
   N        2.87876         3.04112        -1.59157
   C        1.70387         5.75399        -3.14013
   N        1.59243         6.84706        -2.80727
   C        2.25415         2.70426        -5.33853
   C        2.26300         2.77697        -6.75394
   C        1.74240         4.08788        -7.17759
   O        1.68103         4.54396        -8.29285
   C        2.69955         1.74331        -7.54534
   C        3.14661         0.58101        -6.91030
   C        3.15057         0.52324        -5.49571
   C        2.72016         1.57331        -4.69618
   S        3.74645        -1.00403        -4.92305
   C        3.97913        -1.53695        -6.56659
   C        3.63022        -0.61912        -7.49884
  Br        4.65644        -3.25345        -6.89108
   H        0.69370         2.23376         1.42337
   H        0.42284         0.31895        -3.20067
   H        2.96916         0.62351         1.68543
   H       -4.08288         3.06057        -2.47977
   H       -6.19321         3.33364        -1.76144
   H       -4.66135         6.56535         1.67066
   H       -3.03017         5.25683         0.39719
   H       -8.19638         4.28474        -2.45404
   H       -8.19708         6.00739        -2.10345
   H      -10.67322         4.22587        -1.87474
   H      -10.24770         5.20281        -3.27456
   H      -10.62013         5.99061        -1.75123
   H      -10.04260         3.63355         0.22860
   H       -8.61876         3.35672         1.22337
   H       -8.97965         2.27328        -1.61434
   H       -9.20325         1.36869        -0.12105
   H       -7.60349         1.96397        -0.54597
   H      -10.77716         6.14719         0.36210
   H       -8.82778         8.90679         2.97701
   H       -6.67801         7.73827         2.66314
   H      -12.05958         8.09658         1.44070
   H       -9.78210        10.11766         1.28141
   H      -12.74831        10.83732         0.95809
   H      -12.74476        13.10900        -0.69109
   H      -11.17855        14.17269        -2.43598
   H       -9.09423        14.53409        -4.09419
   H       -6.96843        14.01316        -5.45938
   H       -5.01320        12.28926        -5.56542
   H        0.39066         6.21501        -7.05826
   H        2.69412         1.82848        -8.62049
   H        2.74208         1.48822        -3.62299
   H        3.70660        -0.78059        -8.55858
*
