# ORCA input file
# SCF done       -175.712429245158          0.000903128187
! CAM-B3LYP def2-SVP def2/J RIJCOSX Grid4 TightSCF
%maxcore 5000
%tddft
    Mode sTDDFT
    Ethresh 5.0
    maxcore 5000
end

%pal
  nprocs 6
  end
* xyz 0 1
   C        2.94368        -1.29955         9.00684
   C        3.28484        -1.05618         7.73326
   C        3.81252         0.15799         7.18172
   C        4.06058         0.10544         5.85324
   C        3.75195        -1.14326         5.24807
   S        3.13028        -2.26057         6.44357
   C        3.89319        -1.48695         3.92120
   C        4.37369        -0.68423         2.86092
   C        4.38275        -1.31592         1.65471
   C        3.91077        -2.64899         1.68991
   S        3.45737        -3.07927         3.32616
   C        3.80417        -3.49583         0.60913
   C        3.33492        -4.80339         0.60003
   S        2.78523        -5.69010         1.99229
   C        2.40144        -7.12243         1.07800
   C        2.69778        -6.91455        -0.28246
   C        3.22482        -5.61952        -0.54894
   N        3.57934        -5.24601        -1.78679
   C        3.41429        -6.13017        -2.74328
   C        3.83903        -5.73041        -4.12650
   N        5.02032        -6.50178        -4.50963
   C        2.88712        -7.42726        -2.48238
   C        2.68493        -8.41621        -3.59420
   N        1.61566        -7.94286        -4.47165
   N        2.53502        -7.80609        -1.27751
   C        1.89196        -8.25621         1.73242
   C        1.50821        -9.39143         1.08159
   C        1.03423       -10.57072         1.69730
   S        0.45567       -11.87653         0.70719
   C        0.14996       -12.89275         2.08209
   C        0.47007       -12.22378         3.25851
   C        0.97135       -10.92413         3.04818
   O        1.36890       -10.02038         3.99277
   C        1.53559       -10.45233         5.29794
   S        0.00083       -11.22496         5.95012
   S        0.22077       -12.94475         4.85011
   C       -0.34367       -14.20819         1.88214
   C       -0.26478       -15.22057         2.76974
   C       -0.79971       -16.53408         2.50192
   N       -0.50040       -17.49198         3.39047
   C       -0.96211       -18.70251         3.15105
   C       -1.73985       -18.99838         2.04113
   C       -2.02487       -17.93133         1.17753
   N       -1.54235       -16.71340         1.41411
   C       -2.87118       -18.11276         0.01760
   C       -3.26896       -17.08807        -0.76768
   C       -4.14182       -17.28788        -1.86926
   C       -4.62781       -16.30124        -2.67417
   C       -5.55867       -16.46099        -3.77891
   C       -6.02218       -17.64064        -4.30318
   C       -6.92338       -17.72633        -5.38530
   N       -7.64962       -17.86484        -6.26379
   C       -5.66857       -18.93372        -3.86416
   N       -5.43596       -20.02102        -3.57582
   C       -5.90873       -15.13007        -4.25946
   C       -5.17917       -14.16797        -3.51886
   C       -4.33160       -14.85150        -2.52127
   O       -3.56245       -14.32146        -1.75039
   C       -5.29688       -12.81706        -3.73836
   C       -6.18201       -12.39206        -4.73436
   C       -6.90938       -13.35983        -5.46823
   C       -6.78742       -14.72571        -5.24889
   S       -7.95070       -12.61915        -6.64614
   C       -7.40211       -11.04185        -6.14373
   C       -6.48651       -11.06587        -5.14609
  Br       -8.09079        -9.51271        -6.98326
   H        3.05282        -0.53833         9.75897
   H        2.55357        -2.25178         9.31590
   H        3.98168         1.01670         7.80675
   H        4.45622         0.92349         5.27779
   H        4.69533         0.33001         3.01445
   H        4.71175        -0.86623         0.73447
   H        4.10820        -3.11647        -0.35792
   H        4.00439        -4.64217        -4.12911
   H        3.03591        -5.98005        -4.82469
   H        5.79487        -6.27526        -3.89344
   H        5.29692        -6.26000        -5.45486
   H        2.48094        -9.39895        -3.14230
   H        3.60367        -8.46898        -4.18426
   H        0.73835        -7.91539        -3.96109
   H        1.50042        -8.58429        -5.24872
   H        1.80514        -8.19260         2.80648
   H        1.56954        -9.40664         0.00268
   H        1.73769        -9.56575         5.89772
   H        2.34170       -11.18641         5.40176
   H       -0.79131       -14.40678         0.91748
   H        0.24282       -15.12009         3.71717
   H       -0.70082       -19.46093         3.87902
   H       -2.11685       -19.99103         1.85641
   H       -3.20040       -19.12406        -0.18667
   H       -2.92599       -16.08946        -0.54143
   H       -4.45375       -18.30909        -2.05006
   H       -4.72604       -12.11060        -3.15630
   H       -7.36627       -15.42101        -5.83327
   H       -6.04433       -10.18580        -4.71589
*
