# ORCA input file
# SCF done       -127.154132426316          0.000821841814
! CAM-B3LYP def2-SVP def2/J RIJCOSX Grid4 TightSCF
%maxcore 5000
%tddft
    Mode sTDDFT
    Ethresh 5.0
    maxcore 5000
end

%pal
  nprocs 6
  end
* xyz 0 2
   C        6.47022        -9.69718        -8.91093
   C        6.07777        -8.98623        -7.84188
   C        4.85832        -8.25745        -7.66841
   C        4.74693        -7.63144        -6.47067
   C        5.85471        -7.81649        -5.60843
   S        7.06483        -8.82033        -6.38031
   C        6.03163        -7.29589        -4.34008
   C        5.17233        -6.44217        -3.62220
   C        5.66311        -6.04707        -2.40810
   C        6.92975        -6.57528        -2.09484
   S        7.46482        -7.63338        -3.39321
   C        7.69192        -6.44340        -0.94512
   C        7.52456        -5.51575         0.07976
   C        6.86118        -4.30379         0.20106
   C        6.73867        -3.85656         1.61306
   C        7.47983        -4.69174         2.46513
   S        8.14634        -6.01831         1.69372
   O        9.83728        -5.73633         1.38862
   O        6.05466        -2.87684         1.93087
   C        6.32803        -3.45137        -0.77040
   C        6.61593        -3.34749        -2.14518
   C        5.64306        -2.52890        -2.79994
   C        4.75233        -1.96227        -1.95435
   S        5.03264        -2.37550        -0.29753
   O        3.42933        -2.86916         2.90365
   O        5.68517        -2.35057        -4.16662
   C        7.76598        -3.84349        -2.79262
   C        9.01274        -4.23460        -2.27491
   C        9.73521        -5.04864        -3.23902
   C        9.13414        -5.14459        -4.44894
   S        7.61993        -4.29666        -4.49099
   O        8.11383        -2.98656        -5.37283
   O       10.91446        -5.62569        -2.98446
   C        9.60047        -3.85037        -1.06352
   C        9.28936        -2.76131        -0.26809
   C        9.73991        -2.55413         1.05458
   C        9.27055        -1.41559         1.64000
   C        8.45501        -0.63856         0.79063
   S        8.34754        -1.38443        -0.78761
   C        7.77005         0.52129         1.08590
   C        7.75375         1.22357         2.31799
   C        6.96705         2.32546         2.32213
   C        6.30042         2.57949         1.07972
   S        6.74420         1.32067        -0.08330
   C        5.46567         3.58775         0.78525
   H        5.84118        -9.77230        -9.78001
   H        7.41395       -10.20987        -8.93324
   H        4.11628        -8.23432        -8.44649
   H        3.89751        -7.04311        -6.17185
   H        4.21439        -6.14254        -4.00640
   H        5.11197        -5.44966        -1.70706
   H        8.47696        -7.17577        -0.80108
   H        7.47053        -4.62822         3.53387
   H       10.36268        -6.27967         1.98174
   H        4.37211        -2.87832         2.68264
   H        3.96680        -1.27550        -2.20450
   H        3.03953        -2.23688         2.29720
   H        4.94490        -1.78642        -4.41801
   H        9.47980        -5.69062        -5.30047
   H        7.41237        -2.32197        -5.33896
   H       11.16614        -5.46813        -2.06316
   H       10.39494        -4.47487        -0.66716
   H       10.35361        -3.28488         1.55050
   H        9.46943        -1.13204         2.65723
   H        8.32195         0.88078         3.16413
   H        6.82399         2.97703         3.16565
   H        5.22256         4.33083         1.52400
   H        5.01442         3.68490        -0.18488
*
