# ORCA input file
# SCF done       -169.332508865499          0.000580248405
! CAM-B3LYP def2-SVP def2/J RIJCOSX Grid4 TightSCF
%maxcore 5000
%tddft
    Mode sTDDFT
    Ethresh 5.0
    maxcore 5000
end

%pal
  nprocs 6
  end
* xyz 0 1
   C        4.37336         2.41947        -8.46842
   C        3.45021         3.24834        -9.28704
   O        3.35360         4.45724        -9.24774
   C        2.67578         2.28770       -10.09585
   C        3.16550         1.00081        -9.87568
   C        4.31498         1.07231        -8.97411
   C        5.28074         0.10296        -8.84411
   C        6.51727         0.30960        -8.20497
   N        7.56144         0.44008        -7.74398
   C        5.20571        -1.17813        -9.42492
   N        5.19623        -2.24119        -9.85893
   C        2.57524        -0.10415       -10.50115
   C        1.51436         0.10578       -11.34379
   C        1.00959         1.39768       -11.60661
   C        1.59727         2.52842       -10.96791
   C        1.08904         3.81691       -11.23190
   C        0.04288         3.97880       -12.09719
   C       -0.53959         2.86844       -12.72983
   C       -0.06916         1.60690       -12.49000
   C        5.05981         3.00492        -7.43920
   C        5.71083         2.41745        -6.34287
   S        7.01081         3.28549        -5.58222
   C        7.37733         1.99697        -4.49460
   C        6.45597         0.94295        -4.65569
   C        5.50428         1.18730        -5.69025
   C        4.45695         0.27364        -5.90328
   C        4.41646        -0.87252        -5.15912
   F        3.41864        -1.75036        -5.34569
   C        5.39664        -1.14488        -4.18246
   F        5.31970        -2.28828        -3.48173
   C        6.39470        -0.24985        -3.91620
   C        8.48431         2.04475        -3.61936
   C        9.30355         3.11798        -3.48231
   C       10.44287         3.13214        -2.63065
   C       11.26046         4.19026        -2.45311
   C       11.02641         5.52625        -3.08714
   C       12.40487         4.10586        -1.47714
   N       11.94986         4.61969        -0.19966
   C       11.62923         3.84680         0.85607
   C       10.76148         4.26015         1.82107
   C       10.43817         3.57647         3.00198
   C        9.42776         4.01599         3.82648
   C        8.94371         3.48256         5.04203
   C        7.86449         4.14579         5.55751
   C        7.43393         5.22755         4.76330
   S        8.46736         5.41648         3.37374
   C        6.34314         6.07701         4.87019
   C        5.32312         6.19281         5.83135
   C        4.37964         7.12999         5.51634
   C        4.59945         7.79054         4.28035
   S        6.07785         7.20423         3.55965
   C        3.79093         8.73895         3.70089
   C        3.95170         9.33817         2.43592
   S        2.81998        10.59261         1.93774
   C        3.53542        10.82104         0.38867
   C        4.60708         9.97578         0.23640
   C        4.83869         9.15108         1.38514
   O        5.89361         8.33499         1.16759
   C        6.33624         8.62198        -0.08320
   N        7.44832         7.91100        -0.56519
   O        7.80602         8.15432        -1.70924
   O        7.99527         7.10511         0.16554
   C        5.60396         9.60304        -0.70445
   H        2.93635        -1.10258       -10.31563
   H        1.04253        -0.73631       -11.82929
   H        1.54481         4.66134       -10.73945
   H       -0.34448         4.96598       -12.30114
   H       -1.36513         3.01961       -13.40971
   H       -0.51532         0.75116       -12.97605
   H        5.07763         4.09079        -7.47524
   H        3.67165         0.47434        -6.61305
   H        7.10797        -0.46724        -3.13860
   H        8.67686         1.15387        -3.03750
   H        9.08648         4.00900        -4.05422
   H       10.66137         2.20949        -2.10731
   H       10.08629         5.96233        -2.74874
   H       10.96997         5.43246        -4.17037
   H       11.83034         6.21777        -2.84773
   H       13.25154         4.71057        -1.82070
   H       12.74000         3.07631        -1.33959
   H       11.44459         5.49566        -0.25973
   H       12.13241         2.89103         0.91471
   H       10.24687         5.19855         1.65294
   H       10.97409         2.67500         3.26558
   H        9.39904         2.62128         5.49962
   H        7.36231         3.87361         6.46909
   H        5.30369         5.58808         6.72099
   H        3.52126         7.35547         6.12451
   H        2.92569         9.06136         4.26387
   H        3.12974        11.53879        -0.29189
   H        5.77037         9.98600        -1.68967
*
