# ORCA input file
# SCF done       -191.067955447040          0.000494667287
! CAM-B3LYP def2-SVP def2/J RIJCOSX Grid4 TightSCF
%maxcore 5000
%tddft
    Mode sTDDFT
    Ethresh 5.0
    maxcore 5000
end

%pal
  nprocs 6
  end
* xyz 0 1
   C      -17.42542        -8.75822        -3.62425
   C      -16.29026        -9.33616        -3.09737
   C      -16.02925       -10.71945        -3.11045
   N      -15.75464       -11.83503        -3.08712
   C      -15.20147        -8.63682        -2.54797
   N      -14.24619        -8.14663        -2.13398
   C      -18.47738        -9.47760        -4.34091
   C      -19.37815        -8.53012        -4.88616
   C      -20.47089        -8.89244        -5.63276
   C      -20.69419       -10.25866        -5.84278
   C      -19.79353       -11.19677        -5.28886
   C      -18.68082       -10.82844        -4.54004
   S      -20.25849       -12.82856        -5.66470
   C      -21.63875       -12.23495        -6.54930
   C      -21.74714       -10.88539        -6.56404
  Br      -22.80649       -13.45339        -7.36934
   C      -18.93312        -7.17094        -4.51028
   O      -19.42492        -6.12211        -4.88984
   C      -17.75985        -7.36206        -3.64429
   C      -17.11711        -6.34621        -2.95692
   C      -17.50472        -5.01518        -2.96919
   C      -16.77459        -4.00446        -2.36531
   C      -17.05790        -2.62483        -2.41070
   C      -16.07458        -1.83513        -1.88081
   C      -14.98285        -2.56322        -1.37404
   S      -15.25768        -4.28297        -1.54253
   C      -13.78885        -2.06762        -0.87012
   C      -13.34125        -0.73110        -0.87333
   C      -12.06570        -0.58991        -0.41339
   C      -11.43689        -1.80079        -0.02641
   S      -12.56287        -3.12830        -0.21843
   C      -10.15156        -1.85036         0.47270
   C       -9.32551        -2.88430         0.93220
   S       -8.07166        -2.34584         2.04502
   C       -7.64592        -3.96429         2.42113
   C       -8.36527        -4.88344         1.73023
   C       -8.15704        -6.35452         1.86932
   C       -9.30017        -4.29036         0.81680
   C       -9.97526        -5.09314        -0.13411
   C      -10.47767        -4.68350        -1.33591
   C      -11.22098        -5.53576        -2.17056
   C      -11.98137        -5.07303        -3.21302
   C      -12.88905        -5.86658        -3.91514
   C      -13.92551        -5.34348        -4.65788
   C      -14.99325        -6.03671        -5.26427
   C      -16.00356        -5.23087        -5.71096
   C      -15.76936        -3.86025        -5.48655
   S      -14.20001        -3.61192        -4.77572
   C      -16.63585        -2.79085        -5.66299
   C      -17.97982        -2.80024        -6.07687
   C      -18.57567        -1.56917        -6.01790
   C      -17.73556        -0.54588        -5.53416
   S      -16.13507        -1.17305        -5.23229
   C      -18.06657         0.77330        -5.26311
   C      -17.19974         1.61744        -4.58778
   C      -17.35349         2.94149        -4.22209
   C      -18.24010         3.97554        -4.66806
   C      -18.90876         4.03649        -5.87088
   C      -19.75010         5.09835        -6.25178
   N      -20.46462         5.92538        -6.60666
   C      -18.75351         3.10390        -6.91388
   N      -18.63285         2.40679        -7.81904
   C      -18.15053         5.07475        -3.70454
   C      -17.11413         4.78546        -2.78192
   C      -16.55379         3.45417        -3.09384
   O      -15.65814         2.87282        -2.51052
   C      -16.75782         5.65012        -1.77731
   C      -17.46247         6.85504        -1.67121
   C      -18.50283         7.12789        -2.58816
   C      -18.86005         6.25477        -3.61019
   S      -19.24728         8.66619        -2.27209
   C      -18.16110         8.91958        -0.93178
   C      -17.28718         7.90596        -0.72891
  Br      -18.28303        10.49966         0.07292
   H      -21.13768        -8.14848        -6.03989
   H      -18.02426       -11.58231        -4.13893
   H      -22.53670       -10.35229        -7.06156
   H      -16.25183        -6.59980        -2.35572
   H      -18.39655        -4.73167        -3.50892
   H      -17.96686        -2.25422        -2.85084
   H      -16.11032        -0.76110        -1.85059
   H      -13.94659         0.07886        -1.23772
   H      -11.54583         0.35030        -0.36037
   H       -9.72164        -0.86502         0.62845
   H       -6.86987        -4.14761         3.13865
   H       -7.41531        -6.55650         2.63744
   H       -7.80929        -6.78218         0.92982
   H       -9.08771        -6.84788         2.14642
   H      -10.06040        -6.14342         0.11012
   H      -10.32240        -3.66435        -1.66135
   H      -11.29528        -6.58078        -1.90139
   H      -11.96995        -4.01166        -3.43375
   H      -12.86283        -6.93853        -3.77657
   H      -14.99932        -7.11082        -5.32316
   H      -16.91176        -5.58377        -6.16458
   H      -18.48233        -3.70490        -6.36878
   H      -19.60017        -1.37642        -6.28172
   H      -19.05811         1.10105        -5.53640
   H      -16.30077         1.15798        -4.18260
   H      -15.95895         5.40872        -1.09369
   H      -19.66234         6.50713        -4.28336
   H      -16.54861         7.89758         0.05179
*
