# ORCA input file
# SCF done       -159.444990227109          0.000837298641
! CAM-B3LYP def2-SVP def2/J RIJCOSX Grid4 TightSCF
%maxcore 5000
%tddft
    Mode sTDDFT
    Ethresh 5.0
    maxcore 5000
end

%pal
  nprocs 6
  end
* xyz 0 1
   C      -10.47152         3.73000         0.24248
   C       -9.12018         3.91409         0.03036
   C       -8.53863         5.13898        -0.35156
   N       -7.99344         6.10388        -0.65499
   C       -8.13293         2.91980         0.10327
   N       -7.27216         2.15370         0.11081
   C      -11.49016         4.74699         0.02424
   C      -12.76542         4.15591         0.19511
   C      -13.93588         4.85221         0.02710
   C      -13.84671         6.20628        -0.31595
   C      -12.56883         6.79227        -0.47525
   C      -11.38450         6.08489        -0.31326
   S      -12.68612         8.47446        -0.89775
   C      -14.42621         8.36682        -0.85724
   C      -14.89704         7.13669        -0.54244
  Br      -15.45680         9.88837        -1.23425
   C      -12.60384         2.73031         0.55301
   O      -13.49931         1.92419         0.67477
   C      -11.13937         2.51393         0.65761
   C      -10.48926         1.37619         1.06130
   C      -11.01775         0.17130         1.56283
   O      -12.32913         0.06985         1.92969
   C      -12.56700        -1.12935         2.39810
   C      -11.41899        -1.89718         2.36703
   N      -11.30053        -3.22820         2.78619
   O      -12.29144        -3.78629         3.20923
   O      -10.19175        -3.75306         2.70447
   C      -10.38107        -1.06437         1.81948
   N       -9.13068        -1.52357         1.63358
   C       -8.04073        -0.94204         1.03089
   C       -6.85699        -1.56070         0.92651
   C       -6.60298        -2.93865         1.46599
   C       -5.72497        -0.87506         0.21677
   N       -4.51068        -0.95167         0.99931
   C       -3.27805        -0.73794         0.51222
   C       -2.97783        -0.38778        -0.77316
   C       -1.66914        -0.25163        -1.24744
   C       -0.35358        -0.48727        -0.79271
   C        0.19883         0.01980        -2.07509
   C        1.14681         0.34557        -2.95960
   S        0.38278         0.95239        -4.43182
   C       -1.23773         0.74208        -3.78239
   C       -1.15349         0.24629        -2.54110
   C        0.24861        -1.03598         0.33973
   C        1.60151        -1.15198         0.46979
   C        2.28050        -1.73225         1.58170
   C        3.68293        -1.82149         1.57167
   O        4.27578        -1.33331         0.44739
   C        5.59674        -0.83614         0.45951
   C        4.40305        -2.43750         2.64212
   O        5.75470        -2.54093         2.47894
   C        6.51102        -3.16932         3.48483
   C        3.74986        -2.91541         3.75394
   C        2.35476        -2.81573         3.81318
   C        1.60573        -2.24024         2.72807
   N        0.29945        -2.25156         2.97431
   S        0.04377        -2.92001         4.42575
   N        1.57701        -3.22803         4.81150
   H      -14.89145         4.36870         0.15652
   H      -10.43699         6.57848        -0.44858
   H      -15.94167         6.89377        -0.47340
   H       -9.41269         1.40387         1.02904
   H      -13.55576        -1.37255         2.73598
   H       -9.01219        -2.48887         1.95068
   H       -8.17133         0.03874         0.60912
   H       -6.66704        -2.95744         2.55426
   H       -5.61483        -3.28375         1.17512
   H       -7.33592        -3.64914         1.08397
   H       -5.98967         0.16807         0.00734
   H       -5.53916        -1.38141        -0.73864
   H       -4.62564        -1.03557         1.99606
   H       -2.47803        -0.87285         1.22567
   H       -3.76850        -0.17033        -1.47631
   H        2.21658         0.30074        -2.92639
   H       -2.07314         1.00950        -4.39795
   H       -0.38426        -1.40130         1.13397
   H        2.23011        -0.78909        -0.32991
   H        5.79727        -0.23993         1.35195
   H        5.66797        -0.19918        -0.42326
   H        6.33305        -1.63890         0.38687
   H        6.44177        -2.63194         4.43555
   H        7.54056        -3.14475         3.13069
   H        6.20132        -4.20873         3.62936
   H        4.26606        -3.38023         4.57521
*
