# ORCA input file
# SCF done       -208.861870641150          0.000783138998
! CAM-B3LYP def2-SVP def2/J RIJCOSX Grid4 TightSCF
%maxcore 5000
%tddft
    Mode sTDDFT
    Ethresh 5.0
    maxcore 5000
end

%pal
  nprocs 6
  end
* xyz 0 1
   C       -4.99075         4.61434         2.57944
   C       -4.50049         3.39456         2.98072
   C       -3.13700         3.12773         3.21658
   N       -2.04442         2.84189         3.42780
   C       -5.26561         2.23615         3.22362
   N       -5.80366         1.24533         3.44664
   C       -4.17696         5.80525         2.34362
   C       -5.02767         6.86482         1.94787
   C       -4.56063         8.12259         1.65667
   C       -3.18426         8.34949         1.76580
   C       -2.34189         7.28634         2.16463
   C       -2.81492         6.01205         2.45512
   S       -0.67769         7.78388         2.24217
   C       -1.13268         9.39179         1.74486
   C       -2.45968         9.55048         1.52975
  Br        0.18809        10.71141         1.55538
   C       -6.42644         6.38483         1.92180
   O       -7.39952         7.04681         1.61823
   C       -6.36978         4.96629         2.33098
   C       -7.46456         4.14370         2.46607
   C       -8.79546         4.54218         2.28335
   C       -9.84228         3.68356         2.49048
   C      -11.18907         4.06234         2.40424
   O      -11.55620         5.33336         2.08920
   C      -12.90657         5.42315         2.15725
   C      -13.42961         4.17252         2.51115
   C      -12.34164         3.30483         2.66361
   O      -12.36632         2.00420         3.00070
   O      -14.72621         3.80091         2.68729
   C      -13.56343         6.64497         1.92238
   C      -12.91832         7.78331         1.51340
   C      -13.54425         9.02348         1.35814
   C      -12.89200        10.14601         0.89877
   C      -13.46978        11.40883         0.83196
   C      -12.83641        12.53802         0.34295
   C      -13.32392        13.85914         0.36158
   C      -12.46853        14.78008        -0.17937
   C      -11.27819        14.22227        -0.67740
   S      -11.25583        12.49669        -0.41166
   C      -10.23658        14.87762        -1.32602
   C      -10.07000        16.26176        -1.50849
   C       -8.94037        16.59346        -2.20573
   C       -8.17751        15.48750        -2.62847
   S       -8.92149        14.00231        -2.06903
   C       -7.03329        15.51111        -3.40553
   C       -6.39962        14.37724        -3.90150
   C       -5.30308        14.41358        -4.73075
   C       -4.73776        13.27687        -5.31731
   O       -5.24088        12.03244        -5.10124
   C       -4.52774        11.15229        -5.85557
   C       -3.52990        11.84546        -6.56925
   C       -3.66486        13.19493        -6.22100
   O       -2.92944        14.23558        -6.65956
   O       -2.60984        11.37950        -7.42524
   C       -4.78231         9.78401        -5.91772
   C       -5.68741         9.03985        -5.20083
   C       -5.81720         7.65651        -5.40235
   C       -5.32041         7.00094        -6.50875
   C       -5.25642         5.61933        -6.63904
   C       -4.71177         4.88468        -7.67442
   C       -3.97990         5.21236        -8.86582
   C       -3.30019         6.36561        -9.21534
   C       -2.57424         6.51707       -10.41812
   N       -1.96680         6.74331       -11.36689
   C       -3.10937         7.55860        -8.50788
   N       -2.84228         8.59589        -8.07521
   C       -3.93386         3.99720        -9.69147
   C       -4.48039         2.91700        -8.95703
   C       -4.95453         3.42351        -7.65578
   O       -5.46407         2.78624        -6.75827
   C       -4.55494         1.63831        -9.44863
   C       -4.07520         1.40805       -10.74311
   C       -3.55204         2.49386       -11.48045
   C       -3.47269         3.78777       -10.97714
   S       -3.03194         1.99954       -13.06375
   C       -3.51347         0.36093       -12.71336
   C       -4.03923         0.19095       -11.47732
  Br       -3.27958        -0.97039       -14.01438
   H       -5.23584         8.90908         1.35760
   H       -2.13003         5.23671         2.75439
   H       -2.91141        10.47483         1.21882
   H       -7.30378         3.11469         2.76066
   H       -8.99988         5.56341         1.99970
   H       -9.66530         2.65323         2.76689
   H      -13.28592         1.73470         3.12677
   H      -15.30604         4.55285         2.52697
   H      -14.63276         6.66793         2.08914
   H      -11.85802         7.71792         1.31267
   H      -14.59048         9.10495         1.62644
   H      -11.86054        10.04863         0.58333
   H      -14.47684        11.53902         1.20753
   H      -14.28527        14.09845         0.78085
   H      -12.67811        15.83249        -0.24480
   H      -10.77065        16.97810        -1.11901
   H       -8.64657        17.60155        -2.43924
   H       -6.64028        16.48334        -3.67291
   H       -6.81602        13.41044        -3.64994
   H       -4.84300        15.35409        -4.99513
   H       -2.26348        13.89534        -7.27267
   H       -2.68929        10.41536        -7.57920
   H       -4.13210         9.26311        -6.60536
   H       -6.26384         9.51490        -4.42042
   H       -6.31944         7.07500        -4.64013
   H       -4.96047         7.59115        -7.33383
   H       -5.69916         5.01304        -5.85481
   H       -4.97245         0.84045        -8.85479
   H       -3.07203         4.57404       -11.59339
   H       -4.38762        -0.75198       -11.09714
*
