# ORCA input file
# SCF done       -192.285541757949          0.000783085185
! CAM-B3LYP def2-SVP def2/J RIJCOSX Grid4 TightSCF
%maxcore 5000
%tddft
    Mode sTDDFT
    Ethresh 5.0
    maxcore 5000
end

%pal
  nprocs 6
  end
* xyz 0 1
   C       -4.19702         0.71868         4.69008
   C       -3.14461         0.63651         5.56882
   C       -2.93931        -0.43832         6.45835
   N       -2.71554        -1.28146         7.20481
   C       -2.12244         1.59519         5.71866
   N       -1.25603         2.32984         5.89421
   C       -5.24978        -0.28404         4.54614
   C       -6.15580         0.15020         3.54720
   C       -7.25957        -0.57768         3.17691
   C       -7.48254        -1.79765         3.82469
   C       -6.57357        -2.22451         4.82121
   C       -5.45650        -1.48618         5.19512
   S       -7.03594        -3.75838         5.49313
   C       -8.42505        -3.80502         4.44062
   C       -8.53884        -2.72821         3.62705
  Br       -9.59355        -5.27020         4.51378
   C       -5.70431         1.45096         3.02374
   O       -6.25358         2.10802         2.15330
   C       -4.48015         1.78341         3.75078
   C       -3.71668         2.91654         3.57186
   C       -3.88595         4.00169         2.71569
   S       -5.19123         4.23194         1.58697
   C       -4.57318         5.74459         1.04462
   C       -3.37694         6.08682         1.71201
   C       -2.98573         5.10095         2.65939
   C       -1.81623         5.28503         3.41377
   C       -1.07424         6.41968         3.21688
   F        0.04417         6.61493         3.92546
   C       -1.46320         7.39598         2.27758
   F       -0.70456         8.49145         2.11856
   C       -2.59782         7.24143         1.53053
   C       -5.23133         6.52076         0.05617
   C       -6.36630         6.12401        -0.56749
   C       -7.11823         6.83890        -1.55608
   C       -7.20058         8.16629        -1.76237
   C       -6.55365         9.21475        -0.91866
   C       -8.10720         8.69124        -2.85195
   N       -9.28870         9.30316        -2.28229
   C       -9.37644        10.63160        -2.03725
   C      -10.16102        11.17386        -1.08604
   C      -10.33200        12.58326        -0.84182
   C      -10.40439        13.09147         0.44095
   C      -10.21750        12.30203         1.68570
   F      -11.18390        11.39194         1.89364
   F       -9.06184        11.59992         1.66628
   F      -10.17299        13.07137         2.77885
   S      -10.64409        14.79164         0.52550
   C      -10.69452        14.86199        -1.19685
   C      -10.83919        16.08635        -1.85233
   N      -10.96480        17.08562        -2.40441
   C      -10.52522        13.62424        -1.80504
   C      -10.57551        13.45258        -3.23235
   C      -11.36789        14.09789        -4.11427
   C      -12.51974        14.97158        -3.95509
   C      -13.45918        14.90095        -2.96467
   C      -14.62293        15.69842        -2.92985
   N      -15.58257        16.32229        -2.85724
   C      -13.40902        13.96614        -1.91045
   N      -13.42273        13.19476        -1.06084
   C      -12.62575        15.75795        -5.17408
   C      -11.75355        15.21181        -6.15215
   C      -11.00560        14.08724        -5.56616
   O      -10.22163        13.34036        -6.10162
   C      -11.66173        15.72692        -7.42351
   C      -12.45513        16.83486        -7.73751
   C      -13.30740        17.38306        -6.74624
   C      -13.40846        16.85887        -5.46419
   S      -14.18313        18.75641        -7.34496
   C      -13.41217        18.57696        -8.89867
   C      -12.53921        17.54308        -8.96685
  Br      -13.83008        19.76953       -10.28218
   H       -7.93043        -0.21872         2.41227
   H       -4.79567        -1.85701         5.96034
   H       -9.33409        -2.59449         2.91666
   H       -2.83532         2.99203         4.19248
   H       -1.47969         4.56674         4.14455
   H       -2.87230         8.00335         0.82000
   H       -4.75875         7.45130        -0.21482
   H       -6.74738         5.13814        -0.32810
   H       -7.72338         6.20173        -2.19085
   H       -6.42286         8.87160         0.10480
   H       -7.16176        10.11832        -0.90406
   H       -5.57684         9.48137        -1.32407
   H       -8.41996         7.87840        -3.51395
   H       -7.58567         9.44482        -3.44799
   H       -9.80887         8.70608        -1.65296
   H       -8.76580        11.24589        -2.68552
   H      -10.66964        10.51517        -0.39637
   H       -9.85960        12.77126        -3.67460
   H      -10.99724        15.29090        -8.15284
   H      -14.05831        17.31265        -4.73454
   H      -11.97690        17.29002        -9.84701
*
