# ORCA input file
# SCF done       -203.163346476750          0.000595847442
! CAM-B3LYP def2-SVP def2/J RIJCOSX Grid4 TightSCF
%maxcore 5000
%tddft
    Mode sTDDFT
    Ethresh 5.0
    maxcore 5000
end

%pal
  nprocs 6
  end
* xyz 0 1
   C      -12.54288         1.79106         4.77776
   C      -13.76260         1.24548         4.47438
   C      -14.81171         1.09224         5.40445
   N      -15.70021         0.95239         6.11755
   C      -14.11424         0.72176         3.21197
   N      -14.45370         0.24877         2.22225
   C      -12.10229         2.21468         6.10046
   C      -10.72643         2.54402         6.03277
   C      -10.01478         2.97386         7.12609
   C      -10.69389         3.08677         8.34398
   C      -12.07044         2.76237         8.39983
   C      -12.78981         2.32474         7.29446
   S      -12.71551         2.98535         9.99761
   C      -11.14855         3.50096        10.56226
   C      -10.19028         3.50738         9.60521
  Br      -10.92498         3.98256        12.36088
   C      -10.24214         2.36613         4.64948
   O       -9.11515         2.58283         4.25245
   C      -11.42732         1.95866         3.86528
   C      -11.52356         1.96305         2.50162
   C      -10.48095         2.08671         1.55514
   S      -10.84482         2.95136         0.07902
   C       -9.21072         2.85323        -0.41866
   C       -8.41884         2.16730         0.45298
   C       -6.96548         1.91302         0.23643
   C       -9.14515         1.69103         1.58134
   C       -8.56275         0.79859         2.54849
   C       -9.20340        -0.25828         3.08990
   C       -8.62841        -1.17535         4.02236
   C       -7.51401        -0.94876         4.75557
   C       -6.96184        -1.91720         5.63411
   N       -7.38969        -3.13171         5.81013
   C       -6.62491        -3.80533         6.67520
   C       -5.55710        -3.10708         7.19726
   S       -5.51417        -1.50784         6.59799
   C       -4.87694        -3.95187         8.19637
   C       -5.22164        -5.34026         7.63662
   C       -6.71328        -5.23369         7.18378
   C       -7.67804        -5.32289         8.37878
   C       -9.06139        -4.75910         8.07340
   C       -7.10753        -6.15663         6.01064
   C       -7.80875        -7.47319         6.33824
   N       -4.70047        -6.27655         8.61169
   C       -3.59506        -5.70550         9.35434
   S       -3.09641        -4.13395         8.53584
   C       -4.80850        -7.60425         8.39999
   C       -4.35233        -8.63526         9.16876
   C       -3.68735        -8.70298        10.42114
   C       -3.47932        -9.96968        10.87213
   C       -3.96299       -10.98205        10.00973
   S       -4.68006       -10.27698         8.58972
   C       -3.97332       -12.34960        10.20813
   C       -3.54152       -13.10635        11.31530
   C       -3.84791       -14.43212        11.21987
   C       -4.55884       -14.78948        10.04884
   S       -4.73637       -13.39350         9.02651
   C       -4.98592       -16.07083         9.73152
   C       -5.73610       -16.52013         8.65298
   C       -6.51906       -15.86655         7.71042
   C       -7.16894       -14.59847         7.67351
   C       -7.51585       -13.80978         8.75606
   C       -8.07898       -12.52725         8.65636
   N       -8.49078       -11.45359         8.63803
   C       -7.40542       -14.24990        10.08651
   N       -7.34951       -14.58757        11.18350
   C       -7.57861       -14.34145         6.29326
   C       -7.36250       -15.51712         5.53532
   C       -6.74936       -16.54161         6.41310
   O       -6.46304       -17.68266         6.11711
   C       -7.68273       -15.60556         4.20448
   C       -8.22554       -14.47092         3.58744
   C       -8.41993       -13.29857         4.35003
   C       -8.11088       -13.21393         5.70360
   S       -9.08419       -12.01223         3.38628
   C       -9.09641       -13.05897         1.99111
   C       -8.62673       -14.30443         2.23204
  Br       -9.72661       -12.40329         0.34844
   H       -8.96708         3.21738         7.04477
   H      -13.83846         2.09520         7.38455
   H       -9.17061         3.79884         9.77930
   H      -12.51947         1.97234         2.07202
   H       -8.91545         3.31201        -1.34250
   H       -6.63330         2.37337        -0.69010
   H       -6.77129         0.84245         0.18663
   H       -6.38511         2.32564         1.06059
   H       -7.51559         0.95800         2.75885
   H      -10.21875        -0.46928         2.77803
   H       -9.13600        -2.11998         4.16107
   H       -6.99743        -0.00168         4.70673
   H       -5.32332        -3.78324         9.18476
   H       -4.63900        -5.45408         6.70473
   H       -7.75786        -6.36517         8.68826
   H       -7.25832        -4.76536         9.21921
   H       -9.52642        -5.27915         7.24224
   H       -8.99821        -3.70494         7.81506
   H       -9.70134        -4.86302         8.94634
   H       -6.20866        -6.36589         5.42380
   H       -7.77317        -5.57538         5.36932
   H       -7.25691        -8.09322         7.03880
   H       -7.92760        -8.04001         5.41727
   H       -8.79827        -7.30529         6.75136
   H       -2.73353        -6.37427         9.35990
   H       -3.89002        -5.46302        10.38067
   H       -5.37287        -7.86500         7.51734
   H       -3.41546        -7.82631        10.98026
   H       -3.00836       -10.20693        11.80894
   H       -3.04248       -12.65767        12.15524
   H       -3.62236       -15.16241        11.97607
   H       -4.61527       -16.83902        10.39948
   H       -5.65420       -17.58524         8.45175
   H       -7.51965       -16.51729         3.65144
   H       -8.27761       -12.29801         6.24573
   H       -8.56363       -15.07674         1.48723
*
