# ORCA input file
# SCF done       -176.953554842912          0.000976671427
! CAM-B3LYP def2-SVP def2/J RIJCOSX Grid4 TightSCF
%maxcore 5000
%tddft
    Mode sTDDFT
    Ethresh 5.0
    maxcore 5000
end

%pal
  nprocs 6
  end
* xyz 0 1
   C       -2.24111         1.18741         4.32355
   C       -0.93345         0.80008         4.46209
   C       -0.40322         0.20615         5.62666
   N        0.08303        -0.27128         6.55045
   C        0.05431         0.92436         3.46235
   N        0.90423         0.98575         2.69282
   C       -3.29508         1.00519         5.31264
   C       -4.52307         1.44541         4.75960
   C       -5.70772         1.39931         5.45376
   C       -5.68190         0.88794         6.75515
   C       -4.44984         0.45297         7.30152
   C       -3.25140         0.50358         6.60099
   S       -4.64217        -0.13044         8.92628
   C       -6.35140         0.20621         8.84941
   C       -6.75885         0.73304         7.66999
  Br       -7.43257        -0.15386        10.33764
   C       -4.30144         1.94857         3.39226
   O       -5.11204         2.50801         2.69073
   C       -2.84119         1.77010         3.13841
   C       -2.18941         2.26303         2.04969
   C       -2.83391         2.62373         0.83933
   O       -2.25838         3.55187         0.02269
   C       -3.96940         2.14587         0.21286
   C       -5.03111         1.12732         0.28482
   O       -5.24422         0.25658         1.08385
   N       -5.76329         1.34363        -0.87994
   C       -5.27343         2.34123        -1.71584
   O       -5.76193         2.66784        -2.76891
   C       -4.08955         2.83700        -1.01151
   C       -3.01314         3.71138        -1.09000
   C       -2.63589         4.66222        -2.07236
   C       -3.37346         4.87554        -3.18827
   C       -3.02701         5.84169        -4.17644
   C       -3.73867         6.13779        -5.28273
   C       -5.00503         5.47348        -5.70196
   C       -3.22197         7.18235        -6.24353
   N       -2.72717         6.56458        -7.45537
   C       -3.54012         6.31160        -8.51579
   C       -3.29057         5.35257        -9.43581
   C       -4.01901         5.02900       -10.60641
   C       -5.04440         5.53523       -11.32712
   C       -5.69866         6.85862       -11.04032
   C       -4.73931         8.01679       -11.32695
   C       -5.44887         4.71567       -12.47466
   C       -6.55290         5.10620       -13.41576
   C       -6.04568         6.08560       -14.47563
   C       -4.76281         3.58273       -12.65467
   S       -3.48064         3.49812       -11.39426
   O       -2.17258         3.64964       -11.97502
   O       -3.64399         2.37786       -10.50023
   C       -4.79925         2.54965       -13.67173
   C       -5.37549         1.32057       -13.42275
   O       -6.14626         1.20822       -12.30296
   C       -5.79085         0.22297       -11.34125
   C       -5.26690         0.24542       -14.37418
   O       -5.91049        -0.89849       -14.02455
   C       -5.88389        -1.98722       -14.91664
   C       -4.56815         0.40424       -15.54461
   C       -3.99238         1.65300       -15.82356
   C       -4.12070         2.74186       -14.89525
   N       -3.53636         3.85366       -15.33471
   S       -2.87189         3.54655       -16.76832
   N       -3.30669         2.00115       -16.91118
   H       -6.62568         1.74134         5.00265
   H       -2.33878         0.16630         7.06330
   H       -7.77611         1.00303         7.45270
   H       -1.11810         2.41476         2.06814
   H       -6.58077         0.79714        -1.11175
   H       -1.72862         5.21704        -1.87954
   H       -4.27123         4.29248        -3.32776
   H       -2.11519         6.39736        -3.98995
   H       -5.26831         4.63426        -5.06793
   H       -4.91560         5.11772        -6.72982
   H       -5.82262         6.19515        -5.67807
   H       -2.40669         7.75244        -5.78871
   H       -4.02129         7.87526        -6.51980
   H       -1.98052         5.89651        -7.31412
   H       -4.38666         6.97613        -8.59540
   H       -2.43999         4.70028        -9.27636
   H       -6.01047         6.88809        -9.99378
   H       -6.59256         6.98069       -11.64885
   H       -3.83321         7.92240       -10.73478
   H       -5.21519         8.96755       -11.09591
   H       -4.45361         8.01813       -12.37561
   H       -7.39390         5.53760       -12.87048
   H       -6.90609         4.19990       -13.91073
   H       -5.75609         7.03167       -14.02706
   H       -6.82302         6.27599       -15.21213
   H       -5.17851         5.66210       -14.97664
   H       -6.60414         0.22466       -10.61829
   H       -4.85936         0.51171       -10.84653
   H       -5.69653        -0.76725       -11.78770
   H       -6.32913        -1.72407       -15.88065
   H       -6.47857        -2.76693       -14.44330
   H       -4.86387        -2.35139       -15.07281
   H       -4.45539        -0.38596       -16.26680
*
