# ORCA input file
# SCF done       -207.205194483644          0.000888066532
! CAM-B3LYP def2-SVP def2/J RIJCOSX Grid4 TightSCF
%maxcore 5000
%tddft
    Mode sTDDFT
    Ethresh 5.0
    maxcore 5000
end

%pal
  nprocs 6
  end
* xyz 0 1
   C       -5.36665        -5.13733        -6.58389
   C       -4.32057        -4.36257        -6.26488
   C       -3.97617        -3.08202        -6.81200
   C       -2.85943        -2.53181        -6.28529
   C       -2.23043        -3.32311        -5.28476
   S       -3.12064        -4.81250        -5.04136
   C       -1.09913        -3.01400        -4.56584
   C       -0.30988        -1.84205        -4.64779
   C        0.73304        -1.81991        -3.77552
   C        0.83155        -2.96682        -2.94894
   S       -0.44712        -4.09756        -3.34692
   C        1.75999        -3.15083        -1.95169
   C        1.87850        -4.23467        -1.08083
   S        0.88655        -5.65765        -1.18308
   C        1.58721        -6.37663         0.23268
   C        2.60072        -5.55625         0.75108
   C        2.77064        -4.34677         0.00970
   C        3.75296        -3.42134         0.39550
   C        4.55234        -3.70741         1.46675
   F        5.50072        -2.83077         1.84603
   C        4.41672        -4.92132         2.17146
   F        5.25372        -5.17857         3.19399
   C        3.46540        -5.83790         1.82738
   C        1.08418        -7.62258         0.69576
   C        1.05999        -8.02009         1.98727
   C        0.57291        -9.29211         2.45467
   C        0.07378        -9.39637         3.77290
   O        0.07719        -8.24702         4.50768
   C       -0.40980        -8.28780         5.82595
   C       -0.39276       -10.61404         4.23126
   C       -0.35216       -11.75936         3.43536
   C        0.17347       -11.66323         2.12695
   C        0.60926       -10.43853         1.65664
   O        0.19235       -12.81937         1.41228
   C        0.81579       -12.85067         0.14437
   C        0.72096       -14.29256        -0.36846
   C        1.07109       -14.37662        -1.85961
   C        2.51432       -14.02582        -2.20547
   C        1.55461       -15.21968         0.52431
   C        1.31873       -16.69712         0.23621
   C       -0.78074       -13.05050         3.91838
   C       -1.66165       -13.27631         4.90842
   C       -2.02286       -14.58337         5.37738
   S       -3.62042       -14.85093         6.02000
   C       -3.27150       -16.50523         6.31339
   C       -2.00054       -16.84054         5.95725
   C       -1.28182       -15.74182         5.41979
   C        0.16375       -15.86796         5.05348
   C        0.78307       -17.00716         5.85900
   C        0.00728       -18.31084         5.56336
   O        0.72675       -19.38126         6.14280
   C        0.66145       -20.59028         5.42639
   C       -1.40505       -18.20171         6.15343
   N        2.17147       -17.17658         5.51560
   C        3.05284       -17.66969         6.36844
   C        4.35601       -18.06864         6.18204
   C        5.16993       -18.22899         7.40587
   O        4.77699       -18.16151         8.55250
   C        6.55268       -18.44991         6.94216
   C        7.69252       -18.59671         7.67568
   C        8.92616       -18.76483         7.00644
   C        8.94732       -18.77397         5.58232
   C       10.17895       -18.93561         4.91850
   C       11.32286       -19.08157         5.65268
   C       11.32266       -19.07593         7.05361
   C       10.13532       -18.91911         7.71371
   F       12.50127       -19.23768         5.01948
   C        7.74599       -18.62439         4.84930
   C        6.56289       -18.46865         5.51945
   C        5.18679       -18.31651         5.03712
   C        4.81089       -18.51804         3.72609
   C        3.48671       -18.57727         3.27600
   N        2.41054       -18.64606         2.86850
   C        5.70224       -18.75735         2.66162
   N        6.35767       -18.93869         1.73595
   H       -6.07237        -4.82473        -7.33341
   H       -5.53328        -6.08662        -6.10904
   H       -4.58459        -2.63014        -7.57517
   H       -2.45919        -1.57682        -6.57647
   H       -0.53782        -1.04953        -5.33753
   H        1.43571        -1.00956        -3.68906
   H        2.46505        -2.34294        -1.80875
   H        3.89757        -2.49662        -0.13849
   H        3.40478        -6.77054         2.36186
   H        0.61686        -8.24190        -0.05944
   H        1.35011        -7.32738         2.76300
   H       -0.30292        -7.27397         6.20873
   H        0.17252        -8.97297         6.45062
   H       -1.46576        -8.57496         5.85568
   H       -0.77190       -10.71249         5.23514
   H        1.02020       -10.35000         0.66413
   H        1.86359       -12.53623         0.23565
   H        0.29957       -12.17361        -0.54973
   H       -0.32966       -14.58733        -0.26066
   H        0.40402       -13.70380        -2.40481
   H        0.86132       -15.38925        -2.20686
   H        2.75983       -13.01425        -1.89256
   H        2.65803       -14.09001        -3.28170
   H        3.20945       -14.71466        -1.73390
   H        1.27925       -15.00972         1.56041
   H        2.61506       -14.98613         0.41495
   H        0.25563       -16.92724         0.27460
   H        1.82714       -17.31442         0.97363
   H        1.69472       -16.97077        -0.74622
   H       -0.37795       -13.88867         3.37111
   H       -2.19112       -12.45356         5.36969
   H       -4.02630       -17.13613         6.73861
   H        0.68412       -14.92866         5.25484
   H        0.27068       -16.09274         3.98691
   H        0.72057       -16.80131         6.93214
   H       -0.03947       -18.44439         4.47277
   H        1.29684       -21.29328         5.96117
   H        1.03608       -20.46233         4.40433
   H       -0.35974       -20.98341         5.38783
   H       -1.33246       -18.41547         7.22440
   H       -2.05455       -18.96185         5.71322
   H        2.35673       -17.23105         4.52081
   H        2.73992       -17.66729         7.40890
   H        7.65498       -18.58338         8.75464
   H       10.21665       -18.94678         3.84025
   H       12.25664       -19.19437         7.57974
   H       10.10926       -18.91057         8.79312
   H        7.80034       -18.63026         3.77260
*
