# ORCA input file
# SCF done       -142.717829467978          0.000329157374
! CAM-B3LYP def2-SVP def2/J RIJCOSX Grid4 TightSCF
%maxcore 5000
%tddft
    Mode sTDDFT
    Ethresh 5.0
    maxcore 5000
end

%pal
  nprocs 6
  end
* xyz 0 1
   C        4.38329        -0.80859        -9.86426
   C        4.55750        -0.89901        -8.53846
   C        4.88567         0.15339        -7.62050
   C        5.00010        -0.24366        -6.33339
   C        4.77279        -1.63208        -6.12606
   S        4.40178        -2.42043        -7.64591
   C        4.81571        -2.31782        -4.93425
   C        5.10491        -1.81637        -3.64349
   C        5.05436        -2.75782        -2.66376
   C        4.72783        -4.06506        -3.11042
   S        4.49117        -4.03967        -4.85021
   C        4.50923        -5.12807        -2.26577
   C        4.14850        -6.45714        -2.53007
   S        3.27710        -7.28933        -1.26554
   C        3.01759        -8.71105        -2.22418
   C        3.65292        -8.57026        -3.47122
   C        4.31235        -7.31276        -3.63895
   C        5.10904        -7.10226        -4.77760
   C        5.16941        -8.06951        -5.74032
   F        5.93688        -7.88146        -6.82804
   C        4.45679        -9.27911        -5.60747
   F        4.53528       -10.19872        -6.58625
   C        3.71794        -9.53890        -4.48965
   C        2.25451        -9.80013        -1.76244
   C        1.67335        -9.88700        -0.53547
   C        0.86319       -10.97885        -0.13812
   C        0.25592       -11.06586         1.06755
   C       -0.62622       -12.12156         1.47630
   C       -1.24313       -12.14371         2.70731
   S       -2.29035       -13.47856         2.90686
   C       -1.91406       -14.06624         1.30384
   C       -1.01791       -13.23657         0.68827
   C       -2.56129       -15.24321         0.81131
   C       -2.23833       -15.87466        -0.33419
   C       -2.96929       -17.00003        -0.83475
   C       -2.68080       -17.73482        -1.92214
   C       -1.49278       -17.54923        -2.80964
   C       -3.64906       -18.79286        -2.39445
   N       -4.38184       -18.31064        -3.55100
   C       -3.87651       -18.42993        -4.80790
   C       -4.14368       -17.58203        -5.83165
   C       -3.66657       -17.77490        -7.14541
   C       -3.82729       -16.88555        -8.16889
   C       -3.35353       -17.01466        -9.50085
   C       -3.63106       -15.95665       -10.30423
   C       -4.34321       -14.91064        -9.66187
   S       -4.66086       -15.33882        -7.99095
   C       -4.74253       -13.71257       -10.19839
   C       -4.53792       -13.24640       -11.52584
   C       -5.02974       -12.01123       -11.76895
   C       -5.66947       -11.39321       -10.64338
   S       -5.60427       -12.49887        -9.26185
   C       -6.23810       -10.18103       -10.58603
   H        4.48502         0.13616       -10.36843
   H        4.13860        -1.66724       -10.46173
   H        5.02192         1.16184        -7.96866
   H        5.24035         0.41189        -5.51515
   H        5.33661        -0.78015        -3.47498
   H        5.24033        -2.55895        -1.62274
   H        4.51373        -4.86850        -1.21245
   H        5.69376        -6.20736        -4.89621
   H        3.21055       -10.48476        -4.39646
   H        2.11667       -10.61484        -2.46062
   H        1.81428        -9.07919         0.17147
   H        0.72206       -11.76385        -0.86852
   H        0.41165       -10.27629         1.79161
   H       -1.13485       -11.43355         3.50343
   H       -0.66434       -13.40472        -0.31153
   H       -3.36821       -15.62721         1.42197
   H       -1.40884       -15.50775        -0.91907
   H       -3.85410       -17.26079        -0.26517
   H       -0.85320       -16.73855        -2.47934
   H       -1.81460       -17.34491        -3.83256
   H       -0.90223       -18.46585        -2.82930
   H       -4.36951       -19.03672        -1.60878
   H       -3.12194       -19.70493        -2.68598
   H       -4.89981       -17.45762        -3.38062
   H       -3.26337       -19.30729        -4.96942
   H       -4.73813       -16.69664        -5.64663
   H       -3.11427       -18.68184        -7.35625
   H       -2.81831       -17.89392        -9.81568
   H       -3.34361       -15.89000       -11.33841
   H       -4.02753       -13.84908       -12.25665
   H       -4.96577       -11.49782       -12.71217
   H       -6.25415        -9.54165       -11.45099
   H       -6.69202        -9.81072        -9.68546
*
