# ORCA input file
# SCF done       -202.817627492994          0.000506995125
! CAM-B3LYP def2-SVP def2/J RIJCOSX Grid4 TightSCF
%maxcore 5000
%tddft
    Mode sTDDFT
    Ethresh 5.0
    maxcore 5000
end

%pal
  nprocs 6
  end
* xyz 0 1
   C       -5.72948        -1.02596         3.85774
   C       -6.18555        -1.42341         2.60770
   C       -5.38991        -2.27674         1.75765
   N       -5.85069        -2.64720         0.55964
   C       -7.02951        -2.23314         0.16005
   C       -7.82174        -1.38344         1.00781
   N       -7.39770        -1.00453         2.18196
   C       -9.09643        -0.95026         0.55541
   N      -10.11756        -0.62160         0.15590
   C       -7.50997        -2.63396        -1.10898
   N       -7.92236        -2.94496        -2.13174
   C       -4.11512        -2.75531         2.14677
   C       -3.66708        -2.34127         3.42003
   C       -4.47867        -1.48154         4.26029
   N       -3.86704        -1.21281         5.42126
   S       -2.44943        -1.94965         5.44986
   N       -2.51164        -2.65174         4.01061
   C       -3.36856        -3.60562         1.29182
   C       -2.12788        -4.17461         1.56029
   C       -1.68655        -4.97326         0.51717
   C       -2.59932        -5.01134        -0.56362
   S       -3.99827        -4.06592        -0.28214
   C       -2.07192        -5.86073        -1.55484
   C       -0.82586        -6.36874        -1.11461
   C       -0.55984        -5.84019         0.21635
   C        0.48426        -6.14439         1.03775
   C        1.46814        -7.10339         0.70901
   N        2.25144        -7.91066         0.49093
   C        0.62529        -5.55698         2.31414
   N        0.75032        -5.08411         3.35104
   C       -0.22448        -7.21289        -2.03387
   C       -1.01316        -7.37534        -3.17271
   S       -2.50709        -6.44829        -3.09721
   C       -0.72890        -8.20866        -4.26586
   C        0.44107        -8.95861        -4.47424
   C        0.36221        -9.78684        -5.64257
   N        1.35507       -10.59972        -5.99712
   C        2.43577       -10.58124        -5.24589
   C        3.54160       -11.49774        -5.62617
   O        3.48381       -12.21709        -6.59962
   C        4.70858       -11.46748        -4.72723
   C        4.82491       -10.62841        -3.69296
   C        3.80440        -9.62641        -3.33398
   O        3.98996        -8.77986        -2.48903
   C        2.54149        -9.71275        -4.11539
   N        1.55164        -8.93321        -3.73472
   C       -0.84120        -9.65184        -6.34802
   S       -1.86485        -8.49748        -5.55521
   C       -1.17957       -10.37344        -7.50123
   C       -2.31091       -10.23305        -8.30119
   C       -2.31846       -11.15573        -9.33414
   C       -1.19345       -12.01623        -9.31129
   S       -0.10615       -11.65715        -8.04251
   C       -1.31908       -12.94585       -10.36590
   C       -2.51444       -12.66567       -11.06999
   C       -3.17108       -11.52766       -10.45247
   C       -4.33503       -10.93035       -10.83874
   C       -5.07785       -11.37657       -11.95249
   N       -5.68884       -11.73200       -12.85515
   C       -4.86844        -9.82184       -10.14774
   N       -5.29692        -8.91887        -9.58581
   C       -2.74128       -13.54690       -12.11509
   C       -1.74194       -14.51004       -12.20740
   S       -0.49584       -14.31095       -10.98486
   C       -1.67849       -15.57599       -13.14192
   C       -0.64939       -16.54588       -13.06814
   C       -0.56718       -17.65205       -13.99183
   N        0.43321       -18.55165       -13.86619
   C        1.30226       -18.40047       -12.90531
   C        1.21836       -17.30096       -11.98119
   N        0.25635       -16.41724       -12.09339
   C        2.16804       -17.17291       -10.93965
   N        2.95239       -17.10677       -10.10732
   C        2.35187       -19.34673       -12.76334
   N        3.20975       -20.09073       -12.61933
   C       -1.49912       -17.81312       -15.00899
   C       -2.51806       -16.87172       -15.10157
   C       -2.61961       -15.75737       -14.17874
   N       -3.67325       -14.98735       -14.45796
   S       -4.44546       -15.58921       -15.72656
   N       -3.50719       -16.85194       -16.00477
   H       -6.32930        -0.38978         4.48506
   H       -1.60836        -3.99211         2.48322
   H        0.72636        -7.70453        -1.92799
   H        5.49159       -12.17230        -4.97232
   H        5.70758       -10.62376        -3.06790
   H       -3.06603        -9.49087        -8.11251
   H       -3.57797       -13.52884       -12.78936
   H       -1.42719       -18.63970       -15.69431
*
