# ORCA input file
# SCF done       -212.567275872237          0.000944019110
! CAM-B3LYP def2-SVP def2/J RIJCOSX Grid4 TightSCF
%maxcore 5000
%tddft
    Mode sTDDFT
    Ethresh 5.0
    maxcore 5000
end

%pal
  nprocs 6
  end
* xyz 0 1
   C       -2.04664        -1.92154         4.78252
   C       -2.45603        -2.28315         6.06360
   C       -3.50220        -1.46855         6.75378
   C       -1.89641        -3.40014         6.70441
   C       -2.33620        -3.78319         8.08050
   C       -0.92729        -4.15314         6.05000
   C       -0.53011        -3.78877         4.77946
   C       -1.08086        -2.66981         4.13106
   C       -0.46766        -2.53490         2.81283
   C       -0.74336        -1.54280         1.90953
   C       -1.67796        -0.50918         2.13435
   N       -2.42289         0.35623         2.25048
   C       -0.14855        -1.39094         0.63897
   N        0.28709        -1.19324        -0.40512
   C        0.47399        -3.63250         2.66080
   C        0.45603        -4.42556         3.90009
   O        1.12368        -5.41547         4.14901
   C        1.23032        -3.90227         1.55241
   C        2.14050        -4.94553         1.30436
   C        2.79338        -5.07152         0.07147
   C        3.62661        -6.17242         0.02366
   C        3.62136        -6.89974         1.23961
   S        2.59379        -6.22982         2.42216
   C        4.48262        -8.01123         1.09459
   C        5.03058        -7.99232        -0.20729
   C        4.51537        -6.83453        -0.91905
   C        4.80396        -6.45832        -2.19776
   C        5.68625        -7.19502        -3.01655
   N        6.40060        -7.78534        -3.69177
   C        4.23960        -5.30900        -2.79111
   N        3.78464        -4.37818        -3.28168
   C        5.87803        -9.06346        -0.44924
   C        5.98673        -9.90180         0.65588
   S        5.02759        -9.34244         2.01582
   C        6.74487       -11.09958         0.74120
   C        6.79401       -11.86362         1.92836
   C        7.52187       -13.09463         2.02359
   N        7.51837       -13.77308         3.18802
   C        6.86544       -13.30684         4.20287
   C        6.14641       -12.08671         4.10919
   N        6.12417       -11.41088         3.00632
   F        5.47548       -11.60503         5.14976
   F        6.88663       -14.00589         5.33262
   C        8.24087       -13.63933         0.93705
   C        8.21643       -12.86869        -0.25041
   C        7.48611       -11.62419        -0.34538
   N        7.60687       -11.08166        -1.55795
   S        8.52930       -12.01511        -2.47565
   N        8.82839       -13.16213        -1.39869
   C        8.92019       -14.88185         1.04231
   C        9.62314       -15.53372         0.03370
   C       10.14548       -16.74460         0.46301
   C        9.84560       -17.01923         1.81470
   S        8.91712       -15.78527         2.54636
   C       10.41400       -18.26962         2.14632
   C       11.06235       -18.79647         1.00924
   C       10.91736       -17.85016        -0.08416
   C       11.39343       -17.97323        -1.35599
   C       12.11849       -19.10729        -1.78045
   N       12.69967       -20.03054        -2.13312
   C       11.18384       -16.98034        -2.33697
   N       11.01488       -16.18196        -3.14238
   C       11.62684       -20.04592         1.24223
   C       11.45637       -20.46390         2.55302
   S       10.52837       -19.29928         3.49615
   C       11.86116       -21.71267         3.08567
   C       12.02620       -22.08087         4.38209
   C       11.97799       -23.52844         4.75170
   O       12.05272       -24.46710         3.99392
   C       11.75563       -23.53751         6.20766
   C       11.82174       -22.22306         6.70574
   C       11.62173       -21.99146         8.05503
   C       11.36495       -23.06191         8.90698
   C       11.31061       -24.37344         8.40671
   C       11.50555       -24.60342         7.04854
   C       11.04440       -25.52160         9.32619
   C       11.15024       -22.80409        10.36364
   C       12.14760       -21.31954         5.60913
   C       12.73500       -20.08868         5.73921
   C       13.28852       -19.37776         4.65472
   N       13.78107       -18.79315         3.79804
   C       12.93635       -19.44499         6.97689
   N       13.11089       -18.87686         7.95878
   H       -2.49335        -1.05908         4.31497
   H       -3.82867        -0.64544         6.12440
   H       -3.11562        -1.06135         7.68745
   H       -4.36685        -2.08496         6.99781
   H       -2.15120        -2.97007         8.78169
   H       -1.80350        -4.66581         8.42347
   H       -3.40522        -3.99308         8.09656
   H       -0.48354        -5.01729         6.52144
   H        1.12366        -3.23040         0.70914
   H        2.63761        -4.37382        -0.73262
   H        6.40221        -9.26000        -1.36619
   H        9.72360       -15.11516        -0.95063
   H       12.16527       -20.62848         0.51662
   H       11.97922       -22.51070         2.35807
   H       11.65096       -20.98992         8.45508
   H       11.46778       -25.60462         6.64598
   H       10.08469       -25.39654         9.82692
   H       11.81179       -25.58039        10.09746
   H       11.03067       -26.45955         8.77785
   H       11.23258       -21.74327        10.58409
   H       11.88847       -23.34095        10.95869
   H       10.16425       -23.15015        10.67329
*
