# ORCA input file
# SCF done       -270.183740412057          0.000614004090
! CAM-B3LYP def2-SVP def2/J RIJCOSX Grid4 TightSCF
%maxcore 5000
%tddft
    Mode sTDDFT
    Ethresh 5.0
    maxcore 5000
end

%pal
  nprocs 6
  end
* xyz 0 1
   C       -3.17503        -0.59412         1.12452
   C       -2.94767        -0.80537         2.56552
   O       -3.00888        -1.84743         3.18498
   C       -2.62436         0.52392         3.12152
   C       -2.63164         1.47869         2.08946
   C       -2.95177         0.81277         0.82977
   C       -3.00708         1.42455        -0.39499
   C       -2.77002         2.80088        -0.60210
   N       -2.59165         3.90864        -0.84332
   C       -3.29280         0.79576        -1.62570
   N       -3.50815         0.36670        -2.66922
   C       -2.35839         2.80589         2.39163
   C       -2.08553         3.15108         3.70605
   C       -2.08187         2.19086         4.71281
   C       -2.35228         0.85638         4.43229
  Cl       -1.73782         2.66562         6.33145
   C       -3.55580        -1.54619         0.22153
   C       -3.80537        -2.92442         0.39002
   C       -4.19779        -3.71980        -0.67298
   C       -4.40096        -5.06594        -0.34201
   C       -4.85007        -6.11479        -1.18522
   C       -5.03755        -5.94374        -2.60868
   C       -5.97624        -6.52923        -3.41189
   C       -5.80783        -6.20562        -4.77414
   C       -4.74479        -5.38953        -5.03687
   S       -3.92937        -4.99278        -3.56475
   C       -4.26847        -4.86885        -6.34242
  Cl       -6.86219        -6.80455        -5.99571
   C       -5.06953        -7.34076        -0.57484
   C       -4.81623        -7.58011         0.80405
   C       -4.35748        -6.53907         1.64362
   C       -4.16238        -5.29798         1.03991
   S       -3.67325        -3.84765         1.86839
   C       -4.11144        -6.73080         3.05482
   C       -3.14865        -6.14067         3.82847
   C       -3.21702        -6.53305         5.18016
   C       -4.23030        -7.40436         5.46739
   S       -5.12303        -7.76366         4.03354
   C       -4.58395        -8.02939         6.76556
  Cl       -2.10904        -5.95296         6.36112
   C       -5.01671        -8.93127         1.14144
   C       -5.44350        -9.71424         0.09689
   S       -5.60779        -8.79243        -1.38029
   C       -5.74666       -11.10864         0.10596
   C       -5.59666       -11.95694         1.22722
   C       -5.89999       -13.36028         1.15134
   N       -5.72739       -14.13635         2.24069
   C       -5.29879       -13.61725         3.34349
   C       -5.01090       -12.23092         3.42076
   N       -5.15587       -11.45259         2.40000
   F       -4.58156       -11.67866         4.55634
   F       -5.13982       -14.41695         4.39400
   C       -6.37788       -13.98865        -0.01876
   C       -6.55632       -13.13981        -1.13273
   C       -6.23568       -11.73466        -1.06114
   N       -6.46732       -11.11606        -2.21957
   S       -7.03213       -12.17337        -3.28315
   N       -7.01134       -13.47309        -2.34358
   C       -6.65478       -15.38713        -0.05351
   C       -7.13899       -16.09424        -1.12843
   C       -7.31527       -17.46700        -0.87257
   C       -7.81150       -18.45663        -1.75357
   C       -8.34473       -18.09276        -3.04669
   C       -9.08868       -16.98871        -3.36066
   C       -9.44166       -16.94020        -4.72465
   C       -8.97909       -17.98955        -5.46642
   S       -8.08850       -19.08018        -4.46003
   C       -9.16555       -18.25839        -6.91405
  Cl      -10.37436       -15.65167        -5.38457
   C       -7.76557       -19.76787        -1.29428
   C       -7.33013       -20.11328         0.01258
   C       -6.92504       -19.10935         0.92199
   C       -6.89653       -17.80917         0.43990
   S       -6.38148       -16.40426         1.33705
   C       -6.58131       -19.44361         2.28657
   C       -7.21381       -20.33398         3.10869
   C       -6.60930       -20.42721         4.37989
   C       -5.52103       -19.61781         4.54392
   S       -5.23123       -18.70622         3.10170
   C       -4.65239       -19.46013         5.73675
  Cl       -7.20589       -21.48944         5.59930
   C       -7.35818       -21.50440         0.22741
   C       -7.82770       -22.22342        -0.84434
   S       -8.23224       -21.18057        -2.19299
   C       -7.92292       -23.62732        -1.00765
   C       -7.95166       -24.60743        -0.06510
   C       -7.62525       -26.00352        -0.47522
   O       -7.54812       -26.42652        -1.60356
   C       -7.36772       -26.72625         0.78967
   C       -7.64691       -25.87912         1.87780
   C       -8.15774       -24.60839         1.36920
   C       -8.91941       -23.72798         2.09045
   C       -9.18760       -23.86737         3.46911
   N       -9.43479       -23.92909         4.58775
   C       -9.61159       -22.63749         1.52623
   N      -10.21837       -21.75112         1.12165
   C       -7.44116       -26.33344         3.17198
   C       -6.97534       -27.62550         3.35890
   C       -6.72256       -28.45730         2.27272
   C       -6.91212       -28.01628         0.96759
  Cl       -6.16003       -30.06053         2.55186
   H       -2.35578         3.57066         1.63268
   H       -1.87290         4.17869         3.95572
   H       -2.35306         0.10210         5.20315
   H       -3.70350        -1.21974        -0.80083
   H       -4.34669        -3.31196        -1.65626
   H       -6.78212        -7.14062        -3.05223
   H       -3.31723        -5.32763        -6.61368
   H       -4.11837        -3.79158        -6.29424
   H       -4.99814        -5.09470        -7.11606
   H       -2.39024        -5.47941         3.45389
   H       -3.92651        -7.65366         7.54546
   H       -4.48021        -9.11273         6.70453
   H       -5.61658        -7.80675         7.03186
   H       -4.84230        -9.34554         2.11409
   H       -7.32544       -15.62514        -2.07552
   H       -9.41697       -16.25966        -2.64397
   H       -9.65063       -17.40784        -7.38647
   H       -9.78542       -19.14278        -7.06126
   H       -8.20698       -18.43788        -7.39834
   H       -8.11570       -20.85454         2.84447
   H       -5.03650       -20.06878         6.55122
   H       -4.62420       -18.41780         6.05114
   H       -3.63187       -19.77013         5.51350
   H       -6.97292       -21.96689         1.11809
   H       -7.89906       -23.98433        -2.03309
   H       -7.62340       -25.70284         4.02716
   H       -6.80684       -27.99511         4.35816
   H       -6.71418       -28.65314         0.12010
*
