# ORCA input file
# SCF done       -148.668997191343          0.000293279476
! CAM-B3LYP def2-SVP def2/J RIJCOSX Grid4 TightSCF
%maxcore 5000
%tddft
    Mode sTDDFT
    Ethresh 5.0
    maxcore 5000
end

%pal
  nprocs 6
  end
* xyz 0 1
   C        0.86193        -0.09478         4.29803
   C        0.40468        -1.36619         4.54611
   N        0.59043        -2.41628         3.74312
   C        1.25381        -2.29358         2.60956
   C        1.78366        -1.03031         2.22649
   C        1.57504         0.08995         3.10387
   N        2.12566         1.20647         2.62046
   S        2.82560         0.87078         1.21647
   N        2.47486        -0.69572         1.13981
   C        1.40984        -3.46785         1.80849
   C        2.04708        -3.61466         0.59372
   C        1.98093        -4.93194         0.13833
   C        1.28608        -5.77835         1.02382
   S        0.71621        -4.96009         2.40709
   C        1.27893        -7.08786         0.47485
   C        1.96602        -7.06849        -0.75001
   C        2.42803        -5.71155        -1.00335
   C        3.12980        -5.26918        -2.08611
   C        3.50979        -6.12596        -3.14107
   N        3.82340        -6.81018        -4.00611
   C        3.52498        -3.92216        -2.23042
   N        3.85415        -2.83163        -2.36158
   C        2.01562        -8.31861        -1.36632
   C        1.37193        -9.28892        -0.62244
   S        0.69320        -8.64146         0.86578
   C        1.22732       -10.67369        -0.94389
   C        0.53989       -11.57074        -0.12796
   N        0.36929       -12.85944        -0.36578
   C        0.86673       -13.42842        -1.45407
   C        1.59692       -12.64161        -2.38673
   C        1.77699       -11.24051        -2.12461
   N        2.47810       -10.64695        -3.08960
   S        2.86677       -11.73569        -4.20434
   N        2.17064       -13.01503        -3.52794
   C        0.63417       -14.82297        -1.63020
   C        1.04832       -15.65271        -2.65507
   C        0.61189       -16.96145        -2.45909
   C       -0.13830       -17.11459        -1.27664
   S       -0.30336       -15.65663        -0.40762
   C       -0.53595       -18.47385        -1.17463
   C       -0.03803       -19.17529        -2.28502
   C        0.70049       -18.24955        -3.12882
   C        1.34068       -18.53073        -4.29992
   C        1.36038       -19.82690        -4.85767
   N        1.38475       -20.87474        -5.32261
   C        2.03021       -17.54507        -5.03795
   N        2.59406       -16.75461        -5.64783
   C       -0.38343       -20.52797        -2.27236
   C       -1.13869       -20.85890        -1.16630
   S       -1.42685       -19.47531        -0.12021
   C       -1.67019       -22.14766        -0.83142
   C       -2.44050       -22.37605         0.30182
   N       -2.96493       -23.54678         0.66593
   C       -2.77421       -24.61227        -0.06419
   C       -2.01367       -24.54984        -1.24637
   C       -1.44567       -23.28972        -1.64450
   N       -0.75607       -23.39544        -2.78006
   S       -0.82004       -24.91824        -3.28626
   N       -1.71689       -25.52644        -2.10688
   H        0.69048         0.72539         4.97393
   H       -0.15324        -1.58846         5.44541
   H        2.52484        -2.79329         0.09128
   H        2.48845        -8.54033        -2.30553
   H        0.08987       -11.21949         0.79200
   H        1.63263       -15.29502        -3.48317
   H       -0.11236       -21.25375        -3.01722
   H       -2.65884       -21.55724         0.97559
   H       -3.21890       -25.53742         0.27055
*
