# ORCA input file
# SCF done       -227.511513581716          0.000654072538
! CAM-B3LYP def2-SVP def2/J RIJCOSX Grid4 TightSCF
%maxcore 5000
%tddft
    Mode sTDDFT
    Ethresh 5.0
    maxcore 5000
end

%pal
  nprocs 6
  end
* xyz 0 1
   C       -5.74203         3.61372         0.97483
   C       -5.44546         4.40755         2.04695
   F       -5.47804         5.74128         1.92658
   C       -5.10267         3.83743         3.28966
   F       -4.81684         4.64103         4.32288
   C       -5.06105         2.48003         3.44290
   C       -5.36155         1.63546         2.35668
   C       -5.70904         2.21000         1.09963
   C       -6.01793         1.38268        -0.00447
   C       -5.98234         0.02036         0.14341
   C       -5.63112        -0.54059         1.40035
   C       -5.32638         0.22975         2.48504
   C       -5.65795        -2.01192         1.31111
   O       -5.38095        -2.77399         2.21293
   C       -6.05149        -2.32600        -0.08291
   C       -6.25632        -1.07071        -0.78910
   C       -6.66654        -0.89798        -2.08669
   C       -6.98338        -1.91309        -3.01411
   N       -7.27170        -2.66514        -3.83361
   C       -6.84751         0.36285        -2.69531
   N       -7.01263         1.35023        -3.25726
   C       -6.17089        -3.55824        -0.67285
   C       -6.07952        -4.85961        -0.14795
   C       -5.91153        -5.35406         1.14250
   C       -5.92556        -6.73818         1.17985
   C       -6.10183        -7.33275        -0.09603
   S       -6.25520        -6.17385        -1.32822
   C       -6.10316        -8.73601         0.05230
   C       -5.93013        -9.03594         1.42186
   C       -5.81512        -7.79459         2.17136
   C       -5.65198        -7.66743         3.51884
   C       -5.55821        -8.79167         4.36805
   N       -5.47917        -9.69680         5.06761
   C       -5.57507        -6.42108         4.17877
   N       -5.51872        -5.43052         4.75236
   C       -5.93222       -10.39682         1.68118
   C       -6.10556       -11.15013         0.52448
   S       -6.26190       -10.14338        -0.90801
   C       -6.17884       -12.56371         0.40834
   C       -6.09565       -13.45963         1.50894
   C       -6.21247       -14.87465         1.31943
   N       -6.14134       -15.70104         2.37798
   C       -5.96448       -15.20590         3.57037
   C       -5.84455       -13.81420         3.75656
   N       -5.90972       -12.98277         2.75480
   C       -6.40832       -15.47942         0.05291
   C       -6.47063       -14.59293        -1.04250
   C       -6.35994       -13.16770        -0.85409
   N       -6.45345       -12.50992        -2.01203
   S       -6.65595       -13.56377        -3.20618
   N       -6.63770       -14.90242        -2.33035
   C       -6.54340       -16.88486        -0.06173
   C       -6.74012       -17.61180        -1.23170
   C       -6.84665       -18.97159        -0.98311
   C       -6.73374       -19.28631         0.38980
   S       -6.48806       -17.89945         1.36688
   C       -6.87200       -20.68458         0.53423
   C       -7.06244       -21.25778        -0.74408
   C       -7.06534       -20.19627        -1.73512
   C       -7.27729       -20.33071        -3.07594
   C       -7.50862       -21.59616        -3.65548
   N       -7.68906       -22.63461        -4.10743
   C       -7.28078       -19.22669        -3.95406
   N       -7.28012       -18.33316        -4.67251
   C       -7.24285       -22.63097        -0.70175
   C       -7.20799       -23.12693         0.59674
   S       -6.89957       -21.85040         1.77246
   C       -7.34225       -24.45300         1.05106
   C       -7.83209       -25.54779         0.40011
   C       -7.48226       -26.89620         0.93056
   O       -6.98488       -27.13991         2.00540
   C       -7.82024       -27.84031        -0.15183
   C       -7.58830       -29.18358        -0.22342
   C       -7.96793       -29.88392        -1.39036
   C       -8.57078       -29.17248        -2.46836
   C       -8.93319       -29.87492        -3.63513
   C       -8.71399       -31.22096        -3.72472
   C       -8.12251       -31.92433        -2.65601
   C       -7.75611       -31.27099        -1.51287
   F       -7.92027       -33.24368        -2.77121
   F       -9.06060       -31.88753        -4.83324
   C       -8.80721       -27.78251        -2.36137
   C       -8.44823       -27.12892        -1.21349
   C       -8.60278       -25.73194        -0.80986
   C       -9.52357       -24.86786        -1.34478
   C       -9.84011       -23.61316        -0.79035
   N      -10.14474       -22.59546        -0.35416
   C      -10.33647       -25.17798        -2.45570
   N      -11.02315       -25.38260        -3.35161
   H       -6.00309         4.06704         0.03130
   H       -4.79722         2.05795         4.39993
   H       -6.27449         1.85290        -0.93947
   H       -5.06509        -0.23017         3.42592
   H       -6.38009        -3.55269        -1.73598
   H       -5.78151        -4.70816         1.99268
   H       -5.82001       -10.85955         2.64362
   H       -5.91374       -15.90605         4.39157
   H       -5.69300       -13.37850         4.73400
   H       -6.79936       -17.13734        -2.19415
   H       -7.35004       -23.26062        -1.56597
   H       -6.94451       -24.66037         2.04038
   H       -7.12069       -29.70480         0.59794
   H       -9.39063       -29.35241        -4.46065
   H       -7.30368       -31.82342        -0.70426
   H       -9.25620       -27.26677        -3.19509
*
