# ORCA input file
# SCF done       -209.433344383161          0.000621810153
! CAM-B3LYP def2-SVP def2/J RIJCOSX Grid4 TightSCF
%maxcore 5000
%tddft
    Mode sTDDFT
    Ethresh 5.0
    maxcore 5000
end

%pal
  nprocs 6
  end
* xyz 0 1
   C        2.84054         2.88634         2.96046
   C        3.05499         1.66841         3.55257
   C        3.91503         1.46554         4.65213
   N        4.60458         1.23460         5.54062
   C        2.43102         0.45873         3.18038
   N        1.95474        -0.56302         2.96185
   C        3.40370         4.15648         3.39990
   C        2.83559         5.20066         2.61582
   C        3.16878         6.50984         2.81054
   C        4.10233         6.84194         3.81823
   C        4.68344         5.80166         4.59941
   C        4.32002         4.45441         4.37402
   C        5.62164         6.14253         5.59503
   C        5.96853         7.44811         5.81228
   C        5.39398         8.47201         5.04433
   C        4.48063         8.17549         4.06912
   C        1.91192         4.62681         1.61951
   O        1.33243         5.22641         0.74310
   C        1.94266         3.15506         1.85221
   C        1.37422         2.22109         1.03967
   C        0.36494         2.42060         0.06609
   C       -0.72039         3.32563         0.01710
   C       -1.49240         2.96695        -1.11311
   C       -0.78335         1.87995        -1.71432
   N        0.28214         1.55267        -0.98427
   O       -1.08414         1.28792        -2.84702
   C       -0.24538         0.20601        -3.22168
   C       -2.59536         3.85683        -1.13902
   N       -2.50357         4.73753        -0.11122
   C       -1.41315         4.43892         0.59694
   O       -1.06583         5.08088         1.67968
   C       -1.83590         6.23200         1.99288
   C       -3.70536         3.86822        -2.03356
   C       -4.40241         5.05557        -2.35787
   C       -5.55702         5.04934        -3.21203
   N       -6.24155         6.19609        -3.40975
   C       -5.79743         7.28848        -2.88776
   C       -4.58949         7.31201        -2.13534
   N       -3.93722         6.22916        -1.87985
   F       -4.09428         8.46115        -1.67787
   F       -6.50332         8.40219        -3.07800
   C       -6.03840         3.85880        -3.80371
   C       -5.30930         2.68492        -3.52947
   C       -4.17656         2.68291        -2.63195
   N       -3.69390         1.45317        -2.45396
   S       -4.51388         0.43523        -3.37746
   N       -5.54433         1.47132        -4.02823
   C       -7.22568         3.81832        -4.59258
   C       -8.15431         2.75191        -4.70181
   C       -9.16115         3.19449        -5.59162
   C       -8.75877         4.51663        -5.97340
   N       -7.62478         4.86165        -5.35978
   O       -9.38157         5.29455        -6.81615
   C       -8.85292         6.60491        -6.95925
   C      -10.09798         2.14179        -5.69452
   N       -9.69397         1.09379        -4.91839
   C       -8.57211         1.44710        -4.29238
   O       -7.98152         0.68615        -3.39818
   C       -8.56383        -0.59152        -3.19114
   C      -11.25929         1.99448        -6.49376
   C      -12.11822         2.97262        -6.89332
   C      -13.22028         2.80844        -7.82427
   C      -13.40453         1.75518        -8.68195
   C      -14.47959         1.65578        -9.58987
   N      -15.33426         1.51322       -10.34310
   C      -12.54035         0.64663        -8.80756
   N      -11.88249        -0.27624        -8.99221
   C      -14.05038         4.00380        -7.75271
   C      -13.44900         4.91957        -6.84319
   C      -12.22524         4.32489        -6.27471
   O      -11.52039         4.80856        -5.41883
   C      -14.00231         6.13855        -6.57681
   C      -15.20602         6.50508        -7.21987
   C      -15.82002         5.58957        -8.12272
   C      -15.22345         4.33395        -8.37906
   C      -17.02740         5.96014        -8.74930
   C      -17.60089         7.17707        -8.49965
   C      -16.99394         8.07901        -7.61289
   C      -15.82188         7.75048        -6.98727
   H        2.72491         7.28407         2.20235
   H        4.78296         3.68914         4.97655
   H        6.06002         5.35039         6.18417
   H        6.68784         7.69924         6.57731
   H        5.67945         9.49687         5.22887
   H        4.03620         8.95994         3.47409
   H        1.71812         1.19480         1.09504
   H       -0.57775        -0.11010        -4.20810
   H       -0.34031        -0.61130        -2.50456
   H        0.79784         0.52575        -3.24764
   H       -1.40973         6.64458         2.90482
   H       -2.88188         5.95731         2.14083
   H       -1.77907         6.95408         1.17699
   H       -9.51410         7.12637        -7.64800
   H       -7.83681         6.55970        -7.35552
   H       -8.82547         7.10604        -5.99070
   H       -8.01974        -1.04465        -2.36514
   H       -8.46916        -1.20007        -4.09228
   H       -9.62333        -0.49099        -2.94942
   H      -11.46968         0.96555        -6.76160
   H      -13.52713         6.81548        -5.88233
   H      -15.71629         3.65976        -9.06143
   H      -17.48995         5.26262        -9.43210
   H      -18.52586         7.45158        -8.98420
   H      -17.46031         9.03502        -7.42733
   H      -15.35090         8.44056        -6.30253
*
