# ORCA input file
# SCF done       -215.389131509717          0.000763309461
! CAM-B3LYP def2-SVP def2/J RIJCOSX Grid4 TightSCF
%maxcore 5000
%tddft
    Mode sTDDFT
    Ethresh 5.0
    maxcore 5000
end

%pal
  nprocs 6
  end
* xyz 0 1
   C       -1.67441        11.65408         1.63126
   C       -0.85885        11.50315         2.72181
   C        0.55018        11.48206         2.65959
   N        1.69776        11.45993         2.67149
   C       -1.30843        11.30548         4.04501
   N       -1.59266        11.10888         5.13992
   C       -1.24204        11.73849         0.24362
   C       -2.38769        11.75309        -0.59180
   C       -2.30065        11.81716        -1.96188
   C       -1.02676        11.85782        -2.53598
   C        0.11099        11.84410        -1.69333
   C        0.02465        11.78779        -0.30759
   S        1.57828        11.90538        -2.61723
   C        0.67653        11.94479        -4.09228
   C       -0.66175        11.91535        -3.91053
   C       -3.60598        11.71118         0.23535
   O       -4.74723        11.83250        -0.15467
   C       -3.12616        11.63910         1.64387
   C       -3.92623        11.72087         2.73933
   C       -5.32990        11.45627         2.75263
   C       -6.18420        12.13006         3.65024
   C       -7.59815        11.85296         3.72522
   N       -8.34212        12.48201         4.65048
   C       -7.78509        13.38146         5.42621
   C       -6.39369        13.70001         5.30375
   N       -5.63784        13.07077         4.44127
   C       -5.82880        14.70530         6.12929
   N       -5.42128        15.53070         6.81080
   C       -8.60095        14.05237         6.37060
   N       -9.26068        14.62259         7.11359
   C       -8.21485        10.88998         2.89310
   C       -7.34344        10.17960         2.04293
   C       -5.92645        10.44627         1.97636
   N       -5.30249         9.59373         1.16210
   S       -6.38269         8.61820         0.50006
   N       -7.69294         9.18042         1.22633
   C       -9.60328        10.52286         2.95667
   S       -9.97322         8.82712         2.75380
   C      -11.63344         9.11883         3.01786
   C      -11.91740        10.44172         3.20833
   C      -10.75797        11.25238         3.17382
   C      -10.86482        12.74837         3.21397
   C      -12.17125        13.16353         3.91130
   C      -13.37001        12.47480         3.27019
   C      -13.28856        10.96823         3.49810
   N      -10.79729        13.24407         1.84779
   C      -10.88159        14.57804         1.54025
   C      -11.41926        14.95634         0.29833
   C      -11.52549        16.28568        -0.01780
   C      -11.07811        17.27562         0.87768
   C      -10.50878        16.90836         2.09002
   C      -10.41892        15.57179         2.41655
   C      -11.36695        18.57070         0.31373
   C      -12.00185        18.38722        -0.92983
   C      -12.13451        16.91626        -1.24784
   C      -11.35331        16.54139        -2.52064
   C       -9.87689        16.90923        -2.43703
   C      -13.61289        16.51452        -1.40928
   C      -14.46118        16.87242        -0.19473
   C      -12.43941        19.46414        -1.65379
   C      -12.26425        20.76632        -1.14850
   C      -11.59983        20.93308         0.07732
   C      -11.15289        19.85326         0.80617
   C      -12.85461        21.85480        -1.87144
   C      -12.82296        23.17058        -1.54782
   C      -13.47889        24.19533        -2.27561
   C      -14.57062        24.14243        -3.09237
   C      -15.59155        23.14687        -3.34057
   C      -16.03922        22.17847        -2.47699
   C      -17.08521        21.28068        -2.76846
   N      -17.90623        20.49934        -2.95522
   C      -15.56403        21.99127        -1.16436
   N      -15.25595        21.80347        -0.07435
   C      -16.25761        23.50919        -4.58942
   C      -15.82493        24.80211        -4.97900
   C      -14.81137        25.28048        -4.02117
   O      -14.25376        26.35556        -4.00628
   C      -16.31576        25.43994        -6.09241
   C      -17.26979        24.76827        -6.86314
   C      -17.68156        23.47103        -6.47598
   C      -17.19069        22.82734        -5.34601
   S      -18.85857        22.82977        -7.57904
   C      -18.79604        24.27697        -8.52509
   C      -17.93406        25.19981        -8.04629
   H       -3.19053        11.83034        -2.57181
   H        0.91948        11.78785         0.29199
   H        1.21367        11.98900        -5.01975
   H       -1.37855        11.93396        -4.71133
   H       -3.50801        12.02159         3.69134
   H      -12.32512         8.29942         3.01673
   H      -10.01925        13.16035         3.76985
   H      -12.27792        14.24716         3.84243
   H      -12.10566        12.89385         4.96634
   H      -14.29525        12.86052         3.70024
   H      -13.39032        12.69339         2.20002
   H      -14.02680        10.44241         2.88911
   H      -13.51887        10.75249         4.54632
   H      -11.22408        12.63135         1.16603
   H      -11.76635        14.19061        -0.38225
   H      -10.15236        17.65719         2.78085
   H       -9.98887        15.28949         3.36501
   H      -11.80720        17.05295        -3.37206
   H      -11.45038        15.46626        -2.68672
   H       -9.75598        17.98009        -2.28904
   H       -9.36849        16.62904        -3.35681
   H       -9.39857        16.39280        -1.60778
   H      -13.66483        15.43775        -1.58566
   H      -14.01747        17.01498        -2.29131
   H      -14.08328        16.37863         0.69800
   H      -15.49057        16.56006        -0.35361
   H      -14.45315        17.94606        -0.02123
   H      -12.94427        19.32710        -2.60005
   H      -11.45418        21.92686         0.46964
   H      -10.65864        20.00052         1.75452
   H      -13.37836        21.56985        -2.77722
   H      -12.21086        23.50532        -0.72239
   H      -13.02478        25.18135        -2.22121
   H      -15.97564        26.42868        -6.35851
   H      -17.53197        21.83684        -5.09439
   H      -19.41954        24.34652        -9.39517
   H      -17.76314        26.15809        -8.50246
*
