# ORCA input file
# SCF done       -195.073530023530          0.000819778787
! CAM-B3LYP def2-SVP def2/J RIJCOSX Grid4 TightSCF
%maxcore 5000
%tddft
    Mode sTDDFT
    Ethresh 5.0
    maxcore 5000
end

%pal
  nprocs 6
  end
* xyz 0 1
   C       -5.09224        -1.89227        -0.25696
   C       -3.97691        -1.74601        -1.04231
   C       -3.29700        -2.82035        -1.65510
   N       -2.69441        -3.63984        -2.18806
   C       -3.30557        -0.54287        -1.34929
   N       -2.67253         0.36729        -1.65321
   C       -5.69583        -3.17363         0.08559
   C       -6.73026        -2.94535         1.02167
   C       -7.49062        -3.95794         1.55382
   C       -7.22122        -5.26411         1.13374
   C       -6.18987        -5.48420         0.19004
   C       -5.41826        -4.45953        -0.34268
   S       -6.02918        -7.17072        -0.19867
   C       -7.33011        -7.55083         0.89863
   C       -7.85969        -6.47314         1.52398
  Br       -7.86808        -9.33501         1.11220
   C       -6.84050        -1.49936         1.29995
   O       -7.61146        -1.00859         2.09784
   C       -5.84400        -0.84041         0.42249
   C       -5.63221         0.48305         0.15388
   C       -6.17902         1.71563         0.62734
   C       -5.67976         2.88375         0.00446
   C       -6.12262         4.11924         0.39464
   C       -7.11977         4.22616         1.38564
   C       -7.61929         3.08860         2.00980
   C       -7.14319         1.84957         1.64173
   C       -7.45482         5.61722         1.55368
   C       -6.66526         6.38166         0.67331
   C       -5.74847         5.48799        -0.13908
   C       -4.29186         5.87628         0.19194
   C       -3.20467         5.04483        -0.47670
   C       -6.07613         5.51110        -1.64719
   C       -5.83660         6.83172        -2.36713
   C       -6.76123         7.75095         0.68608
   C       -7.68632         8.38953         1.53222
   C       -8.48269         7.60496         2.38229
   C       -8.36477         6.23319         2.40618
   C       -7.76611         9.82458         1.47613
   C       -8.62336        10.61036         2.16691
   C       -8.69331        12.03218         2.06819
   C       -9.65354        12.73427         2.83878
   C       -9.81021        14.16855         2.75852
   N      -10.67037        14.79784         3.58185
   C      -11.40825        14.08536         4.39925
   C      -11.31094        12.65703         4.42321
   N      -10.44022        12.02824         3.66694
   C      -12.15518        11.90989         5.27765
   N      -12.85976        11.34254         5.98228
   C      -12.33139        14.75456         5.23772
   N      -13.11249        15.27890         5.89389
   C       -9.03970        14.94838         1.87981
   C       -8.03953        14.26742         1.16623
   C       -7.86909        12.83265         1.24321
   N       -6.87427        12.42095         0.45555
   S       -6.22480        13.69099        -0.29192
   N       -7.16742        14.83513         0.33031
   C       -9.18496        16.38322         1.77226
   C      -10.33433        17.06572         1.68499
   C      -11.69219        16.45964         1.54525
   C      -10.32297        18.56515         1.84968
   N      -10.51806        18.84321         3.26220
   C      -11.73179        18.75859         3.84367
   C      -11.92984        18.52090         5.17096
   C      -13.19935        18.44577         5.75905
   C      -13.43128        18.15864         7.08055
   C      -14.68841        18.00132         7.70952
   C      -14.62002        17.71004         9.03647
   C      -13.29845        17.62857         9.53768
   S      -12.14676        17.92122         8.25605
   C      -12.90527        17.37272        10.83413
   C      -13.74091        17.12275        11.95492
   C      -13.07457        16.91448        13.11403
   C      -11.64769        16.98508        12.99652
   S      -11.22042        17.32910        11.31311
   C      -10.73404        16.82738        13.96577
   H       -8.26966        -3.74745         2.26970
   H       -4.64701        -4.68189        -1.06045
   H       -8.66731        -6.52590         2.23102
   H       -4.88254         0.65374        -0.61074
   H       -4.95225         2.77927        -0.78665
   H       -8.37540         3.17276         2.77559
   H       -7.52331         0.96843         2.12901
   H       -4.17286         5.80521         1.27675
   H       -4.15496         6.92454        -0.07870
   H       -3.22432         4.01652        -0.12824
   H       -2.23134         5.46175        -0.22611
   H       -3.30408         5.05294        -1.55856
   H       -7.12889         5.23597        -1.75811
   H       -5.48575         4.73156        -2.13132
   H       -6.50349         7.60520        -1.99736
   H       -6.03330         6.70040        -3.42939
   H       -4.80845         7.16493        -2.25460
   H       -6.13223         8.36326         0.05771
   H       -9.19123         8.08422         3.03918
   H       -8.96857         5.64317         3.07932
   H       -7.07194        10.30644         0.80115
   H       -9.34165        10.18417         2.85241
   H       -8.24675        16.92391         1.72714
   H      -12.26791        17.01354         0.80365
   H      -12.23095        16.49868         2.49325
   H      -11.62996        15.42207         1.23119
   H      -11.13035        19.04037         1.28885
   H       -9.36802        18.99800         1.54424
   H       -9.74079        18.56692         3.84938
   H      -12.57480        18.93963         3.19012
   H      -11.07244        18.34689         5.80783
   H      -14.06553        18.58998         5.12661
   H      -15.60488        18.09928         7.15487
   H      -15.47652        17.55196         9.66665
   H      -14.81231        17.10492        11.86187
   H      -13.53795        16.71068        14.06287
   H      -11.03748        16.61950        14.97656
   H       -9.68064        16.90140        13.76768
*
