# ORCA input file
# SCF done       -208.156871166717          0.000987628192
! CAM-B3LYP def2-SVP def2/J RIJCOSX Grid4 TightSCF
%maxcore 5000
%tddft
    Mode sTDDFT
    Ethresh 5.0
    maxcore 5000
end

%pal
  nprocs 6
  end
* xyz 0 1
   C        2.00832        12.54191        -3.02100
   C        2.51654        13.49318        -2.17606
   C        3.80038        14.06244        -2.30240
   N        4.83499        14.55623        -2.35645
   C        1.82364        14.01040        -1.06214
   N        1.29639        14.45110        -0.14294
   C        2.69593        11.96508        -4.17327
   C        1.85927        10.98296        -4.76503
   C        2.23222        10.26837        -5.87803
   C        3.48599        10.53506        -6.43731
   C        4.31326        11.51579        -5.83971
   C        3.93808        12.23711        -4.71197
   S        5.81607        11.68943        -6.69102
   C        5.32166        10.46044        -7.82427
   C        4.09335         9.94438        -7.57843
  Br        6.46993         9.97435        -9.22455
   C        0.60666        10.90824        -4.00597
   O       -0.34117        10.15044        -4.20747
   C        0.71038        11.91052        -2.94311
   C       -0.32991        12.16362        -2.08170
   N       -1.47558        11.48996        -2.21256
   C       -2.61720        11.62740        -1.49424
   S       -2.73488        12.67672        -0.12086
   C       -4.40525        12.23920         0.03700
   N       -5.13275        12.80438         1.09642
   O       -6.30299        12.49478         1.20266
   O       -4.52857        13.56635         1.82811
   C       -4.83961        11.35405        -0.91284
   C       -3.81891        10.97844        -1.80533
   C       -3.94064        10.08045        -2.92393
   C       -5.10059         9.77987        -3.53569
   C       -5.25034         8.95283        -4.69208
   S       -6.83652         8.30188        -4.99133
   C       -6.28641         7.45532        -6.40544
   C       -4.93736         7.67985        -6.62091
   C       -4.35925         8.54991        -5.67304
   C       -2.94107         9.04552        -5.81672
   C       -2.86916        10.47448        -5.60032
   N       -2.79844        11.60802        -5.47003
   C       -2.39307         8.74441        -7.22102
   C       -2.65975         7.28798        -7.56735
   C       -4.16430         7.07398        -7.77040
   O       -4.50382         5.72114        -8.02415
   C       -4.23414         4.80503        -6.98651
   C       -7.17748         6.66786        -7.19089
   C       -8.50524         6.61688        -6.97661
   N       -9.35559         5.83914        -7.71528
   C      -10.70176         5.84665        -7.62130
   S      -11.51258         7.01280        -6.62872
   C      -13.04198         6.34487        -7.11879
   N      -14.19386         6.92330        -6.57468
   O      -15.27002         6.45701        -6.89513
   O      -14.02057         7.85755        -5.80976
   C      -12.92803         5.29795        -7.98640
   C      -11.58705         4.97664        -8.28891
   C      -11.16567         3.89184        -9.11551
   C      -11.99590         3.06009        -9.79165
   C      -11.52384         1.95902       -10.54366
   C      -12.25660         1.14781       -11.35629
   C      -13.60281         1.27410       -11.87180
   C      -14.25077         2.44417       -12.17252
   C      -15.53753         2.49961       -12.74718
   N      -16.58577         2.59249       -13.20483
   C      -13.65729         3.71844       -12.05322
   N      -13.19687         4.76921       -12.01421
   C      -14.04983        -0.06481       -12.24066
   C      -12.93965        -0.94623       -12.18284
   C      -11.75200        -0.20479       -11.71261
   O      -10.62012        -0.61301       -11.58602
   C      -13.04057        -2.27796       -12.50456
   C      -14.29508        -2.76420       -12.88817
   C      -15.39843        -1.87791       -12.93138
   C      -15.29574        -0.52838       -12.61623
   S      -16.85417        -2.69198       -13.41541
   C      -15.97416        -4.19101       -13.55515
   C      -14.65760        -4.08927       -13.25419
  Br      -16.87741        -5.74846       -14.07924
   H        1.57792         9.52666        -6.30847
   H        4.60267        12.97514        -4.29525
   H        3.63474         9.17968        -8.17814
   H       -0.27130        12.90513        -1.29560
   H       -1.47679        10.83473        -3.01189
   H       -5.84828        10.98467        -0.93494
   H       -3.01911         9.65215        -3.28377
   H       -6.02651        10.17284        -3.13887
   H       -2.28949         8.56037        -5.07757
   H       -1.32269         8.95468        -7.23448
   H       -2.87597         9.39565        -7.95361
   H       -2.30123         6.65315        -6.75462
   H       -2.13616         7.00337        -8.48081
   H       -4.46869         7.58119        -8.69784
   H       -4.59929         5.16986        -6.02111
   H       -3.16631         4.57867        -6.90934
   H       -4.76567         3.89175        -7.24821
   H       -6.72772         6.10332        -7.99539
   H       -8.97298         7.19560        -6.19247
   H       -8.93622         5.23401        -8.41115
   H      -13.78913         4.78963        -8.37777
   H      -10.10004         3.72380        -9.21015
   H      -13.06253         3.21129        -9.73643
   H      -10.49120         1.65929       -10.39801
   H      -12.17986        -2.92657       -12.45948
   H      -16.16374         0.10891       -12.65568
   H      -13.96954        -4.91410       -13.28650
*
