# ORCA input file
# SCF done       -184.919074632898          0.000858995663
! CAM-B3LYP def2-SVP def2/J RIJCOSX Grid4 TightSCF
%maxcore 5000
%tddft
    Mode sTDDFT
    Ethresh 5.0
    maxcore 5000
end

%pal
  nprocs 6
  end
* xyz 0 1
   C       -5.43749         1.03149         6.75653
   C       -5.20830        -0.27833         6.39430
   C       -4.32726        -1.14252         7.07157
   N       -3.62514        -1.90290         7.57193
   C       -5.80234        -0.95922         5.31439
   N       -6.22751        -1.60449         4.46230
   C       -4.80414         1.70881         7.88833
   C       -5.29048         3.03678         7.94969
   C       -4.88372         3.93246         8.90621
   C       -3.94846         3.49727         9.85245
   C       -3.46876         2.16998         9.78407
   C       -3.88159         1.26287         8.81435
   S       -2.32044         1.83963        11.04740
   C       -2.50039         3.46935        11.64070
   C       -3.37319         4.22292        10.93219
  Br       -1.51701         4.02228        13.14056
   C       -6.25812         3.25038         6.85021
   O       -6.86105         4.28166         6.61805
   C       -6.32051         1.97196         6.12360
   C       -7.10992         1.73877         5.01157
   C       -7.97076         2.65778         4.42879
   C       -8.73623         2.35519         3.31518
   C       -9.66109         3.19601         2.65934
   C      -10.28460         2.61604         1.59028
   C       -9.87502         1.29037         1.35072
   S       -8.67179         0.79963         2.52431
   C      -10.29741         0.40730         0.37181
   C      -11.27524         0.59038        -0.63226
   C      -11.45920        -0.50279        -1.42090
   C      -10.63623        -1.61690        -1.09557
   S       -9.60553        -1.18660         0.26501
   C      -10.69498        -2.84171        -1.69998
   C       -9.93509        -4.01843        -1.42361
   C       -8.74340        -4.00617        -0.67422
   C       -8.09559        -5.18244        -0.40640
   C       -8.60884        -6.40935        -0.86680
   C       -9.76834        -6.43703        -1.63575
   C      -10.40855        -5.25163        -1.91583
   C       -7.72371        -7.46256        -0.43720
   C       -6.65666        -6.89276         0.28508
   C       -6.83257        -5.39525         0.39885
   C       -5.64059        -4.62947        -0.19683
   C       -5.41372        -4.95481        -1.66897
   C       -7.13124        -4.93715         1.84657
   C       -6.03898        -5.20661         2.87230
   C       -5.63187        -7.68793         0.73672
   C       -5.66370        -9.07540         0.51448
   C       -6.75354        -9.62529        -0.17693
   C       -7.77234        -8.83315        -0.65882
   C       -4.56325        -9.87242         0.99938
   C       -4.41394       -11.20416         0.84260
   C       -3.31874       -11.91853         1.31388
   C       -2.37693       -12.58887         1.69741
   C       -1.34676       -13.35137         2.10298
   C       -0.38910       -14.00804         2.46815
   C        0.64281       -14.89390         2.81332
   C        1.76513       -14.55264         3.58631
   N        2.13326       -13.35448         4.14606
   C        1.28102       -12.19344         4.20808
   C        0.27885       -12.29904         5.35649
   C        3.32081       -13.53364         4.82942
   C        3.73385       -14.88012         4.68803
   C        2.74447       -15.53075         3.88004
   C        2.62477       -16.83207         3.41378
   C        1.51945       -17.16232         2.65112
   C        0.55106       -16.21516         2.36003
   C        4.89107       -15.34703         5.29658
   C        5.62570       -14.46802         6.06323
   C        5.22327       -13.14402         6.19996
   C        4.08707       -12.63658         5.58106
   C        3.79178       -11.20185         5.74017
   C        3.56325       -10.63105         6.91116
   H       -5.27341         4.93823         8.92579
   H       -3.48417         0.26187         8.80635
   H       -3.60372         5.24794        11.15880
   H       -7.06212         0.75828         4.55265
   H       -8.05913         3.64557         4.85652
   H       -9.84075         4.20074         2.99825
   H      -11.01907         3.10728         0.97718
   H      -11.81863         1.51238        -0.73531
   H      -12.16602        -0.55315        -2.23066
   H      -11.46045        -2.94557        -2.46068
   H       -8.32066        -3.07278        -0.34145
   H      -10.15955        -7.37212        -2.00789
   H      -11.31329        -5.26008        -2.50706
   H       -4.74011        -4.88131         0.36390
   H       -5.81936        -3.55876        -0.08172
   H       -5.22470        -6.01806        -1.80252
   H       -4.55544        -4.40359        -2.04649
   H       -6.28384        -4.68519        -2.26392
   H       -8.04970        -5.43271         2.17277
   H       -7.32769        -3.86362         1.81979
   H       -5.90584        -6.27302         3.03495
   H       -6.32212        -4.74961         3.81739
   H       -5.09196        -4.77015         2.56775
   H       -4.78439        -7.26139         1.25250
   H       -6.79681       -10.68973        -0.34899
   H       -8.59373        -9.27164        -1.20615
   H       -3.78902        -9.33083         1.52953
   H       -5.15355       -11.79619         0.31710
   H        0.75104       -12.10360         3.25669
   H        1.89985       -11.30821         4.34631
   H       -0.35019       -13.17761         5.23309
   H       -0.35653       -11.41808         5.37610
   H        0.80472       -12.37338         6.30597
   H        3.38075       -17.56678         3.64455
   H        1.40261       -18.16812         2.27618
   H       -0.30831       -16.49016         1.76571
   H        5.19675       -16.37485         5.17440
   H        6.52481       -14.80076         6.55984
   H        5.82248       -12.46802         6.79263
   H        3.83444       -10.60142         4.83796
   H        3.52872       -11.20963         7.81983
   H        3.38990        -9.57272         7.00827
*
