# ORCA input file
# SCF done       -198.323592428982          0.000836329686
! CAM-B3LYP def2-SVP def2/J RIJCOSX Grid4 TightSCF
%maxcore 5000
%tddft
    Mode sTDDFT
    Ethresh 5.0
    maxcore 5000
end

%pal
  nprocs 6
  end
* xyz 0 1
   C       -4.95980        -0.67354        -4.10064
   C       -4.99093         0.39764        -4.96386
   C       -4.33431         0.43042        -6.21028
   N       -3.82580         0.50319        -7.23654
   C       -5.62136         1.61405        -4.65748
   N       -6.08755         2.63491        -4.40440
   C       -4.17125        -1.89056        -4.25986
   C       -4.24772        -2.64833        -3.06022
   C       -3.59214        -3.84411        -2.90039
   C       -2.83118        -4.32042        -3.97470
   C       -2.76523        -3.56063        -5.16719
   C       -3.42322        -2.34623        -5.32745
   S       -1.77850        -4.33733        -6.36618
   C       -1.46973        -5.65413        -5.26598
   C       -2.07478        -5.52004        -4.06078
  Br       -0.38155        -7.08000        -5.81138
   C       -5.12200        -1.94502        -2.10859
   O       -5.43093        -2.27941        -0.97314
   C       -5.60261        -0.75391        -2.81529
   C       -6.58727         0.05381        -2.30299
   N       -7.03882        -0.10458        -1.05338
   C       -8.00586         0.62517        -0.42204
   S       -8.79974        -0.09274         0.94633
   C       -9.82411         1.29791         1.05998
   N      -10.77913         1.33315         2.08895
   O      -11.50115         2.30861         2.15191
   O      -10.80845         0.37648         2.84083
   C       -9.56266         2.24996         0.11271
   C       -8.50156         1.89521        -0.74616
   C       -7.96014         2.74643        -1.77100
   C       -8.64544         3.70275        -2.43081
   N       -8.07616         4.42364        -3.42926
   C       -8.67539         5.38466        -4.16523
   S      -10.29602         5.94207        -3.93340
   C      -10.19641         7.09655        -5.24149
   C       -8.93518         7.03775        -5.83074
   C       -8.06846         6.06809        -5.22085
   N       -6.80789         5.86530        -5.64406
   C       -6.42442         6.60036        -6.65239
   C       -7.27610         7.55269        -7.26748
   N       -8.50057         7.77771        -6.87571
   C      -11.31818         7.89632        -5.57033
   C      -11.29117         8.83599        -6.54008
   N      -12.36476         9.60871        -6.93402
   C      -13.69056         9.39363        -6.75467
   S      -14.71143        10.79357        -6.58865
   C      -16.10353         9.76117        -6.45999
   N      -17.35235        10.37081        -6.29960
   O      -18.32443         9.64876        -6.18084
   O      -17.36572        11.59060        -6.28254
   C      -15.79907         8.43472        -6.55350
   C      -14.42101         8.18733        -6.74200
   C      -13.86200         6.90280        -7.01599
   C      -14.56849         5.75586        -7.17570
   C      -13.93135         4.52406        -7.45042
   C      -14.51711         3.36148        -7.85726
   C      -15.84261         3.08637        -8.36561
   C      -16.65531         3.96074        -9.04159
   C      -17.91397         3.60949        -9.57186
   N      -18.94917         3.37537       -10.00896
   C      -16.28247         5.27376        -9.39770
   N      -16.00765         6.32758        -9.76102
   C      -16.05882         1.64655        -8.25677
   C      -14.83380         1.02934        -7.89632
   C      -13.80512         2.06976        -7.69394
   O      -12.63903         1.91362        -7.40373
   C      -14.70601        -0.33212        -7.76564
   C      -15.83931        -1.12025        -7.99268
   C      -17.06033        -0.49281        -8.33717
   C      -17.18977         0.88394        -8.47521
   S      -18.33311        -1.65244        -8.56610
   C      -17.22275        -2.94766        -8.20625
   C      -15.96373        -2.53504        -7.92603
  Br      -17.82909        -4.72207        -8.23591
   H       -3.66300        -4.39796        -1.97750
   H       -3.34675        -1.80356        -6.25518
   H       -1.99211        -6.23803        -3.26540
   H       -7.06235         0.80573        -2.91359
   H       -6.64314        -0.92446        -0.56864
   H      -10.09748         3.18071         0.06882
   H       -6.92143         2.60573        -2.03077
   H       -9.68401         3.92062        -2.22285
   H       -7.15316         4.13107        -3.76509
   H       -5.41465         6.44921        -7.00564
   H       -6.92652         8.14064        -8.10505
   H      -12.22071         7.72102        -5.00082
   H      -10.36660         9.04926        -7.05503
   H      -12.12482        10.53279        -7.27071
   H      -16.55904         7.67713        -6.51094
   H      -12.79459         6.86050        -7.17679
   H      -15.64345         5.75791        -7.08024
   H      -12.86682         4.45984        -7.24900
   H      -13.76019        -0.77714        -7.49909
   H      -18.14117         1.31786        -8.73472
   H      -15.15480        -3.19962        -7.68319
*
