# ORCA input file
# SCF done       -219.518828960825          0.000391076432
! CAM-B3LYP def2-SVP def2/J RIJCOSX Grid4 TightSCF
%maxcore 5000
%tddft
    Mode sTDDFT
    Ethresh 5.0
    maxcore 5000
end

%pal
  nprocs 6
  end
* xyz 0 1
   C      -10.96351        10.19847        -0.34209
   C      -10.17986        11.02392         0.41450
   C      -10.52039        12.35210         0.74877
   N      -10.75288        13.43673         1.04081
   C       -8.97094        10.60853         1.01288
   N       -8.00985        10.29365         1.55529
   C      -12.29544        10.48408        -0.84752
   C      -12.87130         9.28258        -1.33631
   C      -14.14099         9.23461        -1.86016
   C      -14.87268        10.42544        -1.91119
   C      -14.28548        11.62168        -1.42767
   C      -13.00531        11.67103        -0.89311
   S      -15.36210        12.97420        -1.59286
   C      -16.57071        11.93235        -2.29600
   C      -16.18858        10.63654        -2.40347
  Br      -18.21944        12.65248        -2.82171
   C      -11.90762         8.17480        -1.18919
   O      -12.08251         7.00488        -1.43622
   C      -10.65599         8.81506        -0.68769
   C       -9.45150         8.21378        -0.71730
   C       -9.25988         6.82914        -1.17376
   C       -9.31374         5.69722        -0.35879
   N       -9.48465         5.58228         1.00821
   C       -9.63877         6.73090         1.86399
   C      -11.10295         7.00815         2.19910
   C       -9.46760         4.24959         1.35304
   C       -9.25207         3.48838         0.17230
   C       -9.14627         4.41330        -0.91731
   C       -8.91980         4.23960        -2.27464
   C       -8.84657         5.36266        -3.07186
   C       -9.00680         6.63026        -2.52698
   C       -9.16743         2.10746         0.18689
   C       -9.30457         1.45506         1.40069
   C       -9.53677         2.17436         2.55372
   C       -9.63705         3.57970         2.59260
   C       -9.91040         4.22789         3.83861
   C      -10.28581         3.62987         5.00915
   C      -10.56011         4.36378         6.17006
   C      -10.98361         3.81265         7.35905
   C      -11.31758         4.50282         8.54433
   C      -11.74086         3.69331         9.55976
   C      -11.75132         2.32416         9.22846
   S      -11.20967         2.08502         7.59299
   C      -12.13638         1.25467        10.03259
   C      -12.65492         1.30774        11.33644
   C      -12.95484         0.07213        11.83836
   C      -12.66683        -1.00166        10.96661
   S      -12.02078        -0.39776         9.46802
   C      -12.89203        -2.32253        11.33017
   C      -12.59849        -3.52410        10.69653
   C      -12.93099        -4.75125        11.37183
   C      -12.52553        -6.03176        10.87004
   N      -12.87897        -7.14671        11.52877
   C      -13.57824        -7.04337        12.63427
   C      -13.94701        -5.76793        13.15271
   N      -13.62325        -4.66418        12.50629
   C      -14.68081        -5.66311        14.35799
   N      -15.27787        -5.60212        15.33453
   C      -13.98051        -8.22287        13.31259
   N      -14.32845        -9.14816        13.89072
   C      -11.71164        -6.16813         9.71295
   C      -11.49107        -4.97702         8.97933
   C      -11.94143        -3.68956         9.44890
   N      -11.64904        -2.72361         8.59109
   S      -10.89080        -3.34814         7.30947
   N      -10.89683        -4.88655         7.79223
   C      -11.23762        -7.44694         9.34795
   C      -10.19915        -7.79989         8.52937
   C       -9.08169        -7.06403         8.00207
   C       -8.50774        -5.93921         8.54616
   C       -7.42310        -5.24846         7.97577
   N       -6.56955        -4.61647         7.53695
   C       -8.89676        -5.37265         9.77352
   N       -9.15318        -4.88157        10.78036
   C       -8.51088        -7.84931         6.91148
   C       -9.12506        -9.12602         6.90349
   C      -10.16049        -9.17107         7.96042
   O      -10.85573       -10.11252         8.26766
   C       -8.76587       -10.11205         6.01859
   C       -7.75994        -9.82084         5.08976
   C       -7.16426        -8.53852         5.09676
   C       -7.52115        -7.54269         5.99849
   S       -5.95179        -8.39057         3.85974
   C       -6.25431       -10.03433         3.36177
   C       -7.21424       -10.66179         4.08033
  Br       -5.27467       -10.76369         1.93749
   H      -14.55607         8.30661        -2.22090
   H      -12.59592        12.60382        -0.54190
   H      -16.80894         9.86099        -2.81395
   H       -8.55070         8.78892        -0.52855
   H       -9.22319         7.59191         1.33185
   H       -9.03568         6.60407         2.76635
   H      -11.66962         7.15920         1.28367
   H      -11.18151         7.90172         2.81361
   H      -11.54971         6.17241         2.73211
   H       -8.80171         3.25149        -2.69025
   H       -8.66877         5.26690        -4.13178
   H       -8.95843         7.49456        -3.17340
   H       -8.99670         1.56125        -0.72720
   H       -9.23220         0.37964         1.44953
   H       -9.62845         1.63057         3.47928
   H       -9.83699         5.30113         3.87901
   H      -10.41399         2.55961         5.07946
   H      -10.44979         5.44079         6.14085
   H      -11.24094         5.57362         8.61271
   H      -12.03732         4.04666        10.53054
   H      -12.80363         2.22878        11.87073
   H      -13.36578        -0.09925        12.81753
   H      -13.35535        -2.44795        12.30253
   H      -11.80872        -8.27790         9.75123
   H       -9.24248       -11.07951         6.04147
   H       -7.04077        -6.57889         5.96518
   H       -7.52673       -11.67568         3.90866
*
