# ORCA input file
# SCF done       -206.661283235271          0.000623693117
! CAM-B3LYP def2-SVP def2/J RIJCOSX Grid4 TightSCF
%maxcore 5000
%tddft
    Mode sTDDFT
    Ethresh 5.0
    maxcore 5000
end

%pal
  nprocs 6
  end
* xyz 0 1
   C      -13.94476        -1.36905        -7.98525
   C      -12.73147        -0.98365        -8.51014
   C      -11.86137        -1.85410        -9.18882
   N      -11.10793        -2.53788        -9.72425
   C      -12.18565         0.30506        -8.35400
   N      -11.68077         1.33201        -8.25003
   C      -14.51927        -2.70933        -8.06290
   C      -15.66650        -2.74933        -7.23524
   C      -16.44853        -3.86925        -7.10906
   C      -16.07278        -5.00992        -7.83036
   C      -14.92463        -4.95979        -8.65366
   C      -14.13744        -3.82016        -8.78719
   S      -14.63548        -6.48208        -9.44343
   C      -16.04213        -7.15605        -8.66303
   C      -16.69670        -6.28794        -7.85667
  Br      -16.51296        -8.94442        -8.98776
   C      -15.84717        -1.43000        -6.58923
   O      -16.72809        -1.12544        -5.80864
   C      -14.79159        -0.56872        -7.14780
   C      -14.80273         0.81700        -7.06585
   C      -15.38159         1.58893        -6.06324
   C      -15.52826         1.24060        -4.72916
   C      -16.08760         2.06161        -3.72025
   C      -15.93724         1.57450        -2.45422
   C      -15.22698         0.35685        -2.40529
   S      -14.83295        -0.18438        -4.01643
   C      -14.79650        -0.36264        -1.30082
   C      -15.03595        -0.11854         0.07220
   C      -14.39350        -0.99381         0.89372
   C      -13.61601        -1.96829         0.21082
   S      -13.77592        -1.75495        -1.51142
   C      -12.73853        -2.85374         0.79690
   C      -11.95502        -3.79321         0.10788
   N      -10.76683        -4.29423         0.60967
   C      -10.12102        -3.87086         1.82885
   C       -9.53059        -2.46882         1.70664
   C      -10.12550        -5.15327        -0.29642
   O       -9.08097        -5.72628        -0.05109
   C      -11.01824        -5.20446        -1.43112
   C      -12.14458        -4.38814        -1.14305
   C      -13.10527        -4.59813        -2.19474
   O      -14.27032        -4.26374        -2.31321
   N      -12.43645        -5.41847        -3.12740
   C      -13.11217        -5.87784        -4.31743
   C      -13.50983        -4.70751        -5.20924
   C      -11.20505        -5.79368        -2.67678
   C      -10.26317        -6.65033        -3.38493
   C       -9.77503        -6.28180        -4.65965
   O      -10.34077        -5.14984        -5.14566
   C      -10.03481        -4.56650        -6.40671
   C      -10.67936        -5.29123        -7.58092
   C       -8.75410        -7.03889        -5.24826
   O       -8.29190        -6.68767        -6.49496
   C       -6.89111        -6.52094        -6.68353
   C       -6.24240        -5.62320        -5.63697
   C       -8.24739        -8.17226        -4.57439
   O       -7.31830        -8.89506        -5.25307
   C       -6.58455        -9.90981        -4.59430
   C       -5.54427        -9.34892        -3.62990
   C       -8.71358        -8.49534        -3.30909
   C       -9.71682        -7.75006        -2.71179
   C      -10.19966        -8.10164        -1.38001
   C      -11.50018        -8.15109        -1.09003
   N      -12.07713        -8.27860         0.17446
   C      -11.41478        -8.00705         1.34392
   S      -12.00327        -6.72889         2.36494
   C      -10.67565        -6.99552         3.44707
   N      -10.57412        -6.16669         4.56289
   O       -9.68541        -6.38471         5.36523
   O      -11.38590        -5.25368         4.64238
   C       -9.84619        -8.00835         3.04236
   C      -10.26359        -8.60897         1.84177
   C       -9.65523        -9.77838         1.23046
   C       -8.45912       -10.26395         1.54023
   H      -17.31725        -3.87237        -6.47014
   H      -13.27799        -3.82618        -9.43647
   H      -17.58283        -6.53541        -7.30118
   H      -14.36452         1.36368        -7.89351
   H      -15.63607         2.61212        -6.31054
   H      -16.58240         2.98601        -3.96091
   H      -16.29165         2.06761        -1.56689
   H      -15.66361         0.68603         0.41025
   H      -14.44152        -0.96995         1.96822
   H      -12.59987        -2.77157         1.86654
   H       -9.31622        -4.59110         2.00501
   H      -10.83109        -3.91677         2.66011
   H       -8.79237        -2.44369         0.90857
   H       -9.04681        -2.19380         2.63948
   H      -10.30684        -1.73952         1.48529
   H      -14.01742        -6.41580        -4.00971
   H      -12.45011        -6.56663        -4.84355
   H      -12.63897        -4.10464        -5.44566
   H      -14.23995        -4.08367        -4.70100
   H      -13.94838        -5.08293        -6.12878
   H       -8.95790        -4.48035        -6.55358
   H      -10.45101        -3.55679        -6.32047
   H      -10.54313        -4.69396        -8.47850
   H      -11.74427        -5.42252        -7.40469
   H      -10.21759        -6.26308        -7.72621
   H       -6.82217        -6.06485        -7.67503
   H       -6.39183        -7.49444        -6.70712
   H       -6.72483        -4.64809        -5.61073
   H       -5.19252        -5.48558        -5.88051
   H       -6.31768        -6.06979        -4.64733
   H       -6.08870       -10.44629        -5.40800
   H       -7.25906       -10.60766        -4.08470
   H       -4.85808        -8.69605        -4.16406
   H       -4.97974       -10.16462        -3.18724
   H       -6.01775        -8.77580        -2.83626
   H       -8.32831        -9.34828        -2.77598
   H       -9.44311        -8.23327        -0.62310
   H      -12.23994        -8.08194        -1.87530
   H      -13.05354        -8.01328         0.19022
   H       -8.98467        -8.30399         3.61176
   H      -10.26593       -10.26884         0.48446
   H       -7.81482        -9.79489         2.26322
   H       -8.07805       -11.15130         1.06587
*
