# ORCA input file
# SCF done       -183.011253663894          0.000541131165
! CAM-B3LYP def2-SVP def2/J RIJCOSX Grid4 TightSCF
%maxcore 5000
%tddft
    Mode sTDDFT
    Ethresh 5.0
    maxcore 5000
end

%pal
  nprocs 6
  end
* xyz 0 1
   C       12.72952        -3.55838        -3.98314
   C       11.69046        -3.92148        -4.74885
   C       11.52567        -3.72518        -6.15916
   C       10.36335        -4.20460        -6.66015
   C        9.51438        -4.81607        -5.70200
   S       10.26222        -4.75456        -4.11279
   C        8.28411        -5.39809        -5.89954
   C        7.56649        -5.53136        -7.10987
   C        6.37915        -6.17658        -6.95922
   C        6.08545        -6.59058        -5.63384
   S        7.38430        -6.10555        -4.56414
   C        4.94997        -7.29494        -5.30380
   C        4.54077        -7.79335        -4.06644
   S        3.09863        -8.77120        -3.95361
   C        3.27057        -9.04996        -2.24228
   C        4.40637        -8.38078        -1.77141
   C        5.11344        -7.68230        -2.79056
   N        6.23916        -7.00227        -2.51840
   C        6.66812        -6.99443        -1.28331
   N        7.79031        -6.26962        -0.98934
   C        5.92486        -7.66672        -0.23839
   N        6.39919        -7.65082         1.04946
   N        4.83503        -8.34355        -0.48635
   C        2.35018        -9.88438        -1.56991
   C        2.42598       -10.17913        -0.24911
   C        1.57157       -11.07711         0.47681
   C        0.52636       -11.79653        -0.12960
   C       -0.21292       -12.68398         0.61060
   C        0.08741       -12.90769         1.96818
   C        1.09649       -12.18354         2.58970
   C        1.81829       -11.27606         1.84533
   C       -0.74218       -13.98383         2.45518
   C       -1.56099       -14.42948         1.40209
   C       -1.35458       -13.57289         0.16981
   C       -0.99999       -14.41022        -1.06677
   C        0.21672       -15.29868        -0.83393
   C       -2.65642       -12.76435        -0.04095
   C       -2.60230       -11.69353        -1.12261
   C       -2.40803       -15.49419         1.57042
   C       -2.45144       -16.16280         2.80661
   C       -1.64116       -15.68980         3.85265
   C       -0.79453       -14.61439         3.69170
   C       -3.26493       -17.32323         3.04247
   C       -4.07104       -17.93713         2.14267
   C       -4.81125       -19.10913         2.41645
   S       -5.79174       -19.82232         1.16851
   C       -6.30869       -21.15488         2.16388
   C       -5.73060       -21.03008         3.43939
   C       -4.89823       -19.88305         3.58072
   N       -4.29322       -19.60371         4.76058
   C       -4.48583       -20.44418         5.74210
   N       -3.85563       -20.20187         6.93716
   C       -5.28486       -21.63959         5.57945
   N       -5.47983       -22.49206         6.63430
   N       -5.89922       -21.90215         4.45594
   C       -7.15402       -22.15000         1.65910
   C       -7.54593       -23.24595         2.38482
   C       -8.37486       -24.25750         1.89992
   C       -8.72528       -25.36952         2.63163
   C       -9.55210       -26.44176         2.22748
   C       -9.71110       -27.41737         3.16472
   C       -9.01421       -27.17290         4.37146
   S       -8.15292       -25.64942         4.27055
   C       -8.96621       -27.96632         5.49506
   C       -9.60743       -29.21566         5.70175
   C       -9.37319       -29.77395         6.91198
   C       -8.51985       -29.00186         7.76647
   S       -8.04153       -27.52154         6.92016
   C       -8.11459       -29.29869         9.00976
   H       13.57668        -3.05389        -4.41292
   H       12.75180        -3.75629        -2.92744
   H       12.28851        -3.23299        -6.73619
   H       10.07883        -4.14241        -7.69596
   H        7.93827        -5.15805        -8.04778
   H        5.69391        -6.37923        -7.76464
   H        4.28500        -7.51418        -6.13152
   H        8.27348        -5.92733        -1.80798
   H        8.38728        -6.62549        -0.26006
   H        6.87048        -6.81092         1.34510
   H        5.75150        -8.03315         1.72242
   H        1.57023       -10.30205        -2.19230
   H        3.22457        -9.71625         0.31306
   H        0.33082       -11.66730        -1.18204
   H        1.32299       -12.34208         3.63401
   H        2.61464       -10.71381         2.31237
   H       -0.79707       -13.74402        -1.90629
   H       -1.85877       -15.03101        -1.33139
   H        1.08690       -14.69554        -0.58374
   H        0.44086       -15.87245        -1.73055
   H        0.03482       -15.99283        -0.01642
   H       -2.91109       -12.28815         0.90983
   H       -3.45387       -13.47291        -0.27725
   H       -1.87060       -10.92945        -0.87432
   H       -3.57613       -11.21499        -1.20511
   H       -2.35470       -12.11965        -2.09137
   H       -3.02701       -15.83052         0.75313
   H       -1.68196       -16.19939         4.80503
   H       -0.17491       -14.27539         4.50905
   H       -3.20763       -17.75850         4.03001
   H       -4.17667       -17.55397         1.13659
   H       -3.43521       -19.28607         6.99338
   H       -4.34133       -20.49599         7.76946
   H       -4.70780       -22.62182         7.26827
   H       -5.97011       -23.33882         6.38291
   H       -7.49296       -22.03392         0.63703
   H       -7.18009       -23.33388         3.39810
   H       -8.76647       -24.18087         0.89313
   H      -10.00517       -26.45893         1.25131
   H      -10.30580       -28.30185         3.02182
   H      -10.22380       -29.65997         4.94007
   H       -9.77384       -30.71559         7.24335
   H       -8.42962       -30.21049         9.48542
   H       -7.46914       -28.64458         9.56628
*
