# ORCA input file
# SCF done       -189.799726445647          0.000617536969
! CAM-B3LYP def2-SVP def2/J RIJCOSX Grid4 TightSCF
%maxcore 5000
%tddft
    Mode sTDDFT
    Ethresh 5.0
    maxcore 5000
end

%pal
  nprocs 6
  end
* xyz 0 1
   C        7.93129        -0.33894         0.07006
   C        8.79091        -1.28843        -0.32024
   C       10.19920        -1.36409        -0.04873
   C       10.81262        -2.44363        -0.57814
   C        9.94736        -3.31128        -1.30619
   S        8.31154        -2.69054        -1.29272
   C       10.27706        -4.49215        -1.92256
   C       11.54320        -5.13465        -1.95419
   C       11.53040        -6.35162        -2.54795
   C       10.24704        -6.75609        -3.02264
   S        9.07903        -5.46578        -2.75236
   C        9.89763        -7.99276        -3.45376
   C        8.57346        -8.39464        -3.93612
   C        8.05019        -7.87896        -5.13388
   C        6.80506        -8.38278        -5.62611
   C        6.27603        -7.84615        -6.82815
   C        6.94129        -6.88059        -7.51768
   C        8.18443        -6.40691        -7.05066
   C        8.72500        -6.89453        -5.90030
   C        6.15624        -9.40740        -4.94391
   C        6.66470        -9.92469        -3.75653
   C        7.86801        -9.37493        -3.22258
   C        8.31920        -9.83186        -1.94837
   C        7.68749       -10.87925        -1.33077
   C        6.54533       -11.47055        -1.90195
   C        6.02857       -10.98619        -3.06447
   C        9.42816        -9.15918        -1.26680
   S       10.94134        -9.97006        -1.11754
   C       11.57967        -8.78672        -0.01065
   C       10.62871        -7.76751         0.19912
   C        9.37778        -8.02183        -0.44444
   C        8.28335        -7.14646        -0.21907
   C        6.92490        -7.40490        -0.78621
   C        8.50138        -6.03475         0.56213
   C        9.76466        -5.71936         1.07783
   C       10.82238        -6.57224         0.90750
   C       12.86523        -8.98455         0.50713
   C       13.41924        -8.53102         1.68034
   C       12.80736        -8.06615         2.86201
   C       13.62575        -7.43097         3.84926
   C       13.09900        -6.95538         5.09828
   N       13.84867        -6.15038         5.86172
   C       15.11194        -5.97453         5.56758
   C       15.69262        -6.63670         4.44062
   N       14.92642        -7.27696         3.58591
   C       17.08538        -6.56216         4.20654
   N       18.21723        -6.47600         4.04746
   C       15.88914        -5.11789         6.38505
   N       16.54314        -4.45351         7.05101
   C       11.77409        -7.24144         5.50762
   C       10.95946        -7.87352         4.54254
   C       11.45816        -8.28349         3.25091
   N       10.52425        -8.93113         2.55656
   S        9.16728        -8.99531         3.41334
   N        9.68857        -8.22606         4.72434
   C       11.26401        -6.86859         6.77312
   C       12.00902        -6.74913         7.91625
   C       11.60088        -6.10163         9.14187
   C       10.49207        -5.30898         9.30980
   C        9.57271        -4.98129         8.29259
   N        8.79570        -4.64080         7.51776
   C       10.14024        -4.68944        10.52548
   N        9.79432        -4.17124        11.49025
   C       12.63223        -6.34528        10.14391
   C       13.66158        -7.11887         9.55462
   C       13.29979        -7.43801         8.16007
   O       13.88981        -8.21058         7.43133
   C       14.79097        -7.49504        10.23875
   C       14.91385        -7.08359        11.57011
   C       13.87708        -6.31789        12.15344
   C       12.73269        -5.94004        11.46141
   S       14.22744        -5.92611        13.80961
   C       15.74245        -6.78152        13.69550
   C       15.97609        -7.33360        12.48172
  Br       16.86931        -6.86889        15.19138
   H        8.26595         0.49493         0.66154
   H        6.88936        -0.37674        -0.19025
   H       10.68577        -0.60213         0.53377
   H       11.86118        -2.65875        -0.47402
   H       12.41686        -4.68252        -1.52061
   H       12.38730        -6.99425        -2.64865
   H       10.68589        -8.72482        -3.58005
   H        5.33034        -8.22877        -7.18379
   H        6.53150        -6.47680        -8.43137
   H        8.70791        -5.65285        -7.61927
   H        9.68152        -6.53196        -5.55625
   H        5.24074        -9.81505        -5.34814
   H        8.04844       -11.23233        -0.37560
   H        6.07039       -12.29204        -1.38748
   H        5.12725       -11.40507        -3.48655
   H        6.93212        -7.29980        -1.86987
   H        6.21086        -6.69275        -0.38083
   H        6.59026        -8.41315        -0.55051
   H        7.68084        -5.35954         0.75385
   H        9.89367        -4.80010         1.62984
   H       11.79672        -6.33787         1.30488
   H       13.51507        -9.59196        -0.11455
   H       14.49892        -8.58468         1.75154
   H       10.19625        -6.69313         6.80826
   H       15.55951        -8.08246         9.76130
   H       11.96922        -5.35893        11.95131
   H       16.85987        -7.89374        12.23638
*
