# ORCA input file
# SCF done       -193.723342196205          0.000955327952
! CAM-B3LYP def2-SVP def2/J RIJCOSX Grid4 TightSCF
%maxcore 5000
%tddft
    Mode sTDDFT
    Ethresh 5.0
    maxcore 5000
end

%pal
  nprocs 6
  end
* xyz 0 1
   C       -4.14261         0.49064         6.41376
   S       -4.95307        -0.99635         6.52513
   C       -4.06050        -1.68455         5.18960
   C       -3.11741        -0.75304         4.71174
   C       -3.18472         0.49388         5.41442
   C       -2.32367         1.55138         5.06320
   C       -1.39533         1.39160         4.06437
   C       -0.51467         2.49733         3.68813
   C       -0.03885         3.40231         4.53226
   C       -1.29149         0.13520         3.39409
   C       -0.24186        -0.06627         2.34519
   C       -2.12964        -0.89988         3.72215
   C       -4.40389        -2.99510         4.81119
   C       -4.03158        -3.63253         3.66129
   C       -4.31917        -4.96504         3.28853
   C       -5.02633        -5.93917         4.04286
   C       -5.22046        -7.29456         3.56825
   N       -6.04659        -8.10242         4.23241
   C       -6.59473        -7.71167         5.36364
   C       -6.26588        -6.43967         5.91595
   N       -5.52301        -5.59501         5.23701
   C       -6.73969        -6.06361         7.19563
   N       -7.14219        -5.78687         8.23257
   C       -7.46225        -8.60092         6.03872
   N       -8.12886        -9.32457         6.62748
   C       -4.62110        -7.77913         2.36713
   C       -4.00837        -6.76957         1.57459
   C       -3.85300        -5.41512         2.02528
   N       -3.21804        -4.66459         1.12662
   S       -2.86374        -5.56124        -0.16219
   N       -3.48666        -6.95165         0.36648
   C       -4.65150        -9.10697         1.89600
   S       -4.37612        -9.36100         0.19766
   C       -4.63413       -11.07777         0.30739
   C       -4.86955       -11.45358         1.65424
   C       -4.85202       -10.35440         2.55501
   C       -4.94156       -10.62874         3.92103
   C       -5.12354       -11.91700         4.39348
   C       -5.20421       -12.08219         5.84809
   C       -4.60545       -13.02576         6.56014
   C       -5.24533       -12.99298         3.48162
   C       -5.54495       -14.38900         3.93286
   C       -5.09592       -12.74603         2.13418
   C       -4.54438       -11.91535        -0.79907
   C       -4.29753       -11.46147        -2.07393
   C       -4.12680       -12.26000        -3.21312
   C       -3.91341       -11.64290        -4.47971
   C       -3.66760       -12.40906        -5.67214
   N       -3.51165       -11.77806        -6.83893
   C       -3.57830       -10.46639        -6.89575
   C       -3.80072        -9.70951        -5.70734
   N       -3.96004       -10.30997        -4.54659
   C       -3.85128        -8.29587        -5.75971
   N       -3.87815        -7.15231        -5.83223
   C       -3.42177        -9.82127        -8.14548
   N       -3.28988        -9.26700        -9.13995
   C       -3.55005       -13.82714        -5.67031
   C       -3.85521       -14.44494        -4.42755
   C       -4.14718       -13.68182        -3.23369
   N       -4.44187       -14.46985        -2.20525
   S       -4.39158       -16.01072        -2.67992
   N       -3.97742       -15.75148        -4.21200
   C       -3.21720       -14.50486        -6.86550
   S       -3.49804       -13.71396        -8.38735
   C       -3.06551       -15.11513        -9.30325
   C       -2.57507       -16.12778        -8.46884
   C       -2.66244       -15.78821        -7.08333
   C       -2.11594       -16.66574        -6.14291
   C       -1.54471       -17.86291        -6.52471
   C       -0.99901       -18.75576        -5.50596
   C       -1.49569       -18.87851        -4.28113
   C       -1.46136       -18.20139        -7.90359
   C       -0.82522       -19.48878        -8.33113
   C       -1.95884       -17.33644        -8.84311
   C       -3.23771       -15.06402       -10.72383
   C       -3.43065       -16.10321       -11.53909
   H       -4.39261         1.29440         7.07787
   H       -2.41539         2.49321         5.58200
   H       -0.24473         2.55275         2.64223
   H       -0.25001         3.36797         5.58808
   H        0.59826         4.20400         4.20036
   H       -0.45469         0.54541         1.46817
   H       -0.20836        -1.10666         2.03206
   H        0.73904         0.21853         2.72292
   H       -2.00534        -1.84652         3.22285
   H       -5.05103        -3.52337         5.49739
   H       -3.47325        -3.09648         2.90882
   H       -4.84905        -9.83086         4.63695
   H       -5.77829       -11.31538         6.35473
   H       -3.98298       -13.78091         6.11175
   H       -4.69479       -13.05791         7.63262
   H       -6.11661       -14.38601         4.85718
   H       -4.62144       -14.94182         4.10506
   H       -6.10788       -14.91690         3.16600
   H       -5.15487       -13.56591         1.43406
   H       -4.66684       -12.97758        -0.64601
   H       -4.20896       -10.39527        -2.23855
   H       -2.11242       -16.39479        -5.10252
   H       -0.14611       -19.35384        -5.79694
   H       -2.36974       -18.33446        -3.96400
   H       -1.05774       -19.54586        -3.55850
   H       -1.29232       -20.33314        -7.82649
   H        0.23657       -19.49383        -8.08438
   H       -0.92468       -19.62585        -9.40498
   H       -1.84329       -17.56311        -9.89123
   H       -3.27114       -14.06119       -11.13253
   H       -3.49134       -17.11586       -11.18198
   H       -3.57263       -15.95689       -12.59548
*
