# ORCA input file
# SCF done       -163.680062290727          0.000657449364
! CAM-B3LYP def2-SVP def2/J RIJCOSX Grid4 TightSCF
%maxcore 5000
%tddft
    Mode sTDDFT
    Ethresh 5.0
    maxcore 5000
end

%pal
  nprocs 6
  end
* xyz 0 1
   C       -5.22661        -7.96667         6.70592
   S       -3.66589        -8.40335         6.15593
   C       -4.08634        -8.05449         4.50156
   C       -5.39453        -7.61383         4.42865
   C       -6.05420        -7.56224         5.69356
   C       -7.42266        -7.09653         5.83213
   C       -8.19065        -7.26610         6.90075
   O       -6.01537        -7.26673         3.25285
   C       -6.82676        -8.29144         2.70722
   C       -3.10824        -8.23875         3.48070
   C       -3.25702        -7.85597         2.19245
   C       -2.29411        -8.04299         1.15797
   C       -2.52987        -7.60659        -0.12397
   C       -1.64983        -7.74236        -1.19687
   C       -0.34474        -8.38494        -1.02556
   C        0.10334        -8.89071         0.14334
   S       -0.79489        -8.85591         1.60499
   C        0.26762        -8.33487        -2.30750
   C       -0.58041        -7.70658        -3.22106
   C       -0.00577        -7.66241        -4.51209
   C        1.22615        -8.23501        -4.53941
   S        1.74660        -8.85474        -3.01120
   C       -1.79306        -7.32347        -2.53597
   C       -2.92873        -6.66645        -3.04911
   C       -3.08456        -6.14755        -4.29861
   C       -4.26408        -5.51694        -4.73777
   S       -5.70770        -5.38443        -3.74560
   C       -6.63716        -4.54471        -4.96432
   C       -5.84486        -4.36784        -6.11289
   C       -4.53227        -4.91776        -5.95894
   N       -3.84244        -4.71452        -7.11339
   C       -4.67408        -4.05942        -7.98855
   N       -4.21503        -3.72028        -9.26335
   O       -3.06640        -4.05170        -9.53836
   O       -4.96838        -3.12400       -10.01418
   C       -5.91028        -3.83077        -7.41453
   C       -7.97913        -4.19044        -4.72362
   C       -8.72481        -3.45316        -5.62148
   C      -10.06626        -3.12858        -5.47581
   C      -10.78544        -3.42345        -4.22735
   C      -10.25442        -4.11666        -3.19902
   S       -8.66570        -4.77491        -3.20414
   C      -12.06369        -2.81865        -4.38047
   C      -12.14848        -2.20598        -5.63204
   C      -13.40743        -1.60111        -5.84516
   C      -14.22657        -1.76288        -4.77420
   S      -13.51272        -2.65481        -3.47027
   C      -10.91809        -2.41375        -6.34496
   C      -10.66611        -1.97112        -7.66710
   C       -9.72815        -2.51263        -8.49048
   C       -9.31873        -2.05741        -9.76678
   S       -8.31487        -3.12242       -10.71198
   C       -8.23069        -1.99740       -12.01866
   C       -8.95969        -0.85134       -11.72880
   C       -9.57965        -0.87584       -10.45441
   C      -10.39648         0.19976        -9.90255
   C      -11.37957         0.79433       -10.56525
   O       -8.99615         0.17967       -12.62484
   C       -8.68444         1.47423       -12.14667
   C       -7.44492        -2.33153       -13.17327
   C       -7.45892        -1.68008       -14.33483
   H       -5.44005        -8.00634         7.75490
   H       -7.80395        -6.57512         4.96313
   H       -7.84767        -7.79116         7.77613
   H       -9.19725        -6.88690         6.93390
   H       -7.59279        -8.61704         3.41819
   H       -6.22030        -9.15604         2.41531
   H       -7.30240        -7.86453         1.82607
   H       -2.18826        -8.71252         3.79863
   H       -4.16628        -7.35340         1.89617
   H       -3.47950        -7.11780        -0.29603
   H        1.07017        -9.35820         0.24313
   H       -0.46223        -7.24384        -5.38999
   H        1.88194        -8.33842        -5.38183
   H       -3.76479        -6.55599        -2.36919
   H       -2.27917        -6.19214        -5.01574
   H       -2.89558        -4.97094        -7.34079
   H       -6.71755        -3.34301        -7.92085
   H       -8.19803        -3.07831        -6.48140
   H      -10.80035        -4.32455        -2.29233
   H      -13.69409        -1.07641        -6.73861
   H      -15.23298        -1.41142        -4.65593
   H      -11.30816        -1.18417        -8.03688
   H       -9.25373        -3.43463        -8.18233
   H      -10.15956         0.49311        -8.88633
   H      -11.64583         0.49643       -11.56606
   H      -11.95863         1.59029       -10.12774
   H       -8.21058         1.99848       -12.97742
   H       -7.99118         1.43286       -11.30384
   H       -9.58466         2.01538       -11.84329
   H       -6.80154        -3.19135       -13.03817
   H       -8.10111        -0.83447       -14.50123
   H       -6.82142        -1.98381       -15.14694
*
