# ORCA input file
# SCF done       -164.997025015867          0.000595780452
! CAM-B3LYP def2-SVP def2/J RIJCOSX Grid4 TightSCF
%maxcore 5000
%tddft
    Mode sTDDFT
    Ethresh 5.0
    maxcore 5000
end

%pal
  nprocs 6
  end
* xyz 0 1
   C       -1.06675        -5.28279        -4.78659
   C       -2.26853        -5.15952        -4.09148
   C       -3.26219        -4.27387        -4.57490
   C       -3.06423        -3.52674        -5.72281
   C       -1.86469        -3.66675        -6.39309
   C       -0.87838        -4.53598        -5.92876
   S       -4.64582        -4.31708        -3.52772
   C       -3.77787        -5.51324        -2.53368
   N       -2.60234        -5.82319        -2.95602
   C       -4.37253        -6.05673        -1.36273
   S       -5.96702        -5.61132        -0.84562
   C       -5.85312        -6.65475         0.53865
   C       -4.63287        -7.30245         0.56962
   C       -3.80316        -6.96761        -0.49805
   C       -6.91913        -6.75940         1.47453
   C       -6.94004        -7.46198         2.66196
   C       -8.14272        -7.34265         3.35617
   C       -9.07169        -6.55124         2.71401
   S       -8.43231        -5.93999         1.21464
   C      -10.38572        -6.22367         3.13616
   S      -10.98913        -6.74128         4.68282
   C      -12.53087        -5.97800         4.39391
   C      -12.53980        -5.36361         3.15496
   C      -11.34356        -5.49793         2.45660
   C      -13.54159        -6.06084         5.38339
   C      -14.80548        -5.58455         5.25455
   C      -15.79794        -5.68288         6.25458
   S      -15.49658        -6.37401         7.84116
   C      -17.13271        -6.14199         8.39986
   C      -17.88811        -5.54860         7.38514
   C      -17.12632        -5.29543         6.20089
   N      -17.94947        -4.71641         5.28641
   C      -19.19583        -4.59973         5.85761
   N      -20.24141        -4.03051         5.11741
   O      -19.96831        -3.66593         3.98128
   O      -21.33525        -3.93597         5.63998
   C      -19.20237        -5.09749         7.14413
   C      -17.52093        -6.52462         9.69659
   S      -19.17463        -6.37429        10.23263
   C      -18.76593        -7.00613        11.80307
   C      -17.41876        -7.30663        11.87839
   C      -16.72483        -7.04347        10.70453
   C      -19.75197        -7.15528        12.80896
   C      -21.11244        -6.94470        12.70905
   C      -21.80000        -7.18535        13.89580
   C      -20.98082        -7.57846        14.93617
   S      -19.32167        -7.66102        14.41917
   C      -21.35251        -7.87404        16.27551
   S      -20.16346        -8.16690        17.50622
   C      -21.39308        -8.37816        18.72092
   C      -22.65013        -8.23419        18.16403
   C      -22.62919        -7.95102        16.80178
   C      -21.01257        -8.63442        20.06518
   C      -21.86800        -8.80849        21.09761
   C      -21.41421        -9.03150        22.42802
   N      -20.18860        -9.08031        22.81723
   C      -20.07071        -9.29438        24.15016
   C      -18.87446        -9.39037        24.86029
   C      -18.92188        -9.60809        26.21935
   C      -20.13929        -9.73264        26.88820
   C      -21.33846        -9.64108        26.20908
   C      -21.30053        -9.42158        24.84317
   S      -22.61775        -9.25805        23.72717
   H       -0.31202        -5.95815        -4.41698
   H       -3.82975        -2.85509        -6.07907
   H       -1.68935        -3.09351        -7.29088
   H        0.04815        -4.62307        -6.47620
   H       -4.35922        -7.99805         1.34157
   H       -2.81622        -7.36087        -0.65701
   H       -6.10473        -8.03802         3.01553
   H       -8.34464        -7.81633         4.30063
   H      -13.38923        -4.82779         2.77220
   H      -11.16372        -5.08652         1.47882
   H      -13.26922        -6.55589         6.30659
   H      -15.11218        -5.10253         4.33657
   H      -17.74553        -4.41076         4.34850
   H      -20.04597        -5.12334         7.80253
   H      -16.97093        -7.70846        12.76998
   H      -15.67138        -7.21355        10.57027
   H      -21.57979        -6.62650        11.79392
   H      -22.86288        -7.06796        14.00085
   H      -23.55663        -8.32842        18.73359
   H      -23.51441        -7.80922        16.20896
   H      -19.95252        -8.68347        20.27296
   H      -22.93806        -8.77927        20.95559
   H      -17.93989        -9.29096        24.33184
   H      -18.00219        -9.68299        26.78016
   H      -20.14582        -9.90374        27.95409
   H      -22.28195        -9.73721        26.72362
*
