# ORCA input file
# SCF done       -217.365218539228          0.000783621250
! CAM-B3LYP def2-SVP def2/J RIJCOSX Grid4 TightSCF
%maxcore 5000
%tddft
    Mode sTDDFT
    Ethresh 5.0
    maxcore 5000
end

%pal
  nprocs 6
  end
* xyz 0 1
   C      -11.68447        -2.37602         3.21704
   C      -11.63896        -3.34829         4.20549
   C      -11.82070        -4.68954         3.90088
   C      -12.06426        -5.09705         2.59774
   C      -12.11269        -4.13485         1.60358
   C      -11.91565        -2.76904         1.90836
   C      -11.99456        -1.99289         0.67573
   C      -11.93369        -0.62632         0.58465
   C      -11.79877         0.23652         1.69230
   N      -11.69015         0.99876         2.54402
   C      -12.02649         0.12054        -0.60771
   N      -12.09263         0.79732        -1.53372
   C      -12.11321        -2.94942        -0.41454
   C      -12.39083        -4.24777         0.18073
   C      -13.07641        -5.27378        -0.41608
   C      -13.64019        -5.18362        -1.70595
   N      -14.16345        -5.12536        -2.72618
   C      -13.38501        -6.49079         0.22248
   N      -13.64847        -7.50661         0.68779
   C      -11.88820        -2.65905        -1.73606
   C      -11.51483        -3.53088        -2.77560
   S      -10.79543        -5.10635        -2.53279
   C      -10.57100        -5.32503        -4.23766
   C      -11.03163        -4.22236        -4.94414
   C      -11.53295        -3.22117        -4.13029
   C       -9.97566        -6.50101        -4.75023
   C       -9.74114        -6.83312        -6.07340
   C       -9.12573        -8.06864        -6.23229
   C       -8.86950        -8.71556        -5.03678
   S       -9.41739        -7.76540        -3.68832
   C       -8.23824        -9.96722        -4.83969
   S       -7.66232       -10.91060        -6.18390
   C       -7.05675       -12.14958        -5.12012
   C       -7.31041       -11.82081        -3.79964
   C       -7.96864       -10.60642        -3.64415
   C       -6.40488       -13.28168        -5.67149
   C       -5.84233       -14.28338        -4.95220
   C       -5.18463       -15.40112        -5.52218
   S       -5.07126       -15.61787        -7.24403
   C       -4.18218       -17.10733        -7.05696
   C       -3.97147       -17.39017        -5.71253
   C       -4.54731       -16.43943        -4.85544
   C       -4.45544       -16.52954        -3.36291
   C       -3.99027       -17.91376        -2.92157
   C       -2.76181       -18.34049        -3.73743
   N       -2.11065       -19.54998        -3.26850
   C       -3.18164       -18.54894        -5.19507
   C       -3.81748       -17.78468        -8.25048
   C       -3.35836       -19.05414        -8.36939
   C       -3.01547       -19.66545        -9.60574
   S       -2.53931       -21.34012        -9.61576
   C       -2.31255       -21.32340       -11.33881
   C       -2.59376       -20.07065       -11.85339
   C       -2.98570       -19.14847       -10.88847
   C       -1.89973       -22.48574       -12.03995
   C       -1.66065       -22.62387       -13.39588
   C       -1.27408       -23.90833       -13.76241
   C       -1.20719       -24.78927       -12.69766
   S       -1.63386       -23.98920       -11.21150
   C       -0.85901       -26.16221       -12.71809
   S       -0.83220       -27.10977       -11.26767
   C       -0.35563       -28.54042       -12.14711
   C       -0.23182       -28.25558       -13.50024
   C       -0.50973       -26.93598       -13.81742
   C       -0.12924       -29.73965       -11.44525
   C        0.16316       -30.94493       -12.01421
   C        0.36375       -32.14789       -11.30518
   C        0.75052       -32.32094        -9.99844
   C        0.49060       -33.52657        -9.22340
   C        0.09875       -34.75470        -9.69016
   C       -0.09243       -35.10678       -11.04237
   N       -0.27111       -35.48078       -12.11385
   C       -0.13775       -35.87513        -8.86608
   N       -0.34427       -36.82987        -8.26261
   C        0.70686       -33.18450        -7.82253
   C        1.22271       -31.87163        -7.74912
   C        1.49009       -31.28448        -6.52375
   C        1.24639       -32.01672        -5.37149
   C        0.75212       -33.31102        -5.44124
   C        0.47686       -33.90758        -6.66284
   C        1.39676       -31.37009        -9.10466
   C        2.24482       -30.35277        -9.45949
   C        2.92354       -29.53501        -8.53363
   N        3.49025       -28.82507        -7.83147
   C        2.61105       -30.03840       -10.78371
   N        2.98847       -29.75536       -11.83038
   H      -11.53845        -1.33988         3.47397
   H      -11.45619        -3.05270         5.22736
   H      -11.77301        -5.42781         4.68683
   H      -12.19984        -6.14182         2.36907
   H      -11.91151        -1.61716        -2.02916
   H      -10.99080        -4.15928        -6.01574
   H      -11.93163        -2.29129        -4.49502
   H      -10.01369        -6.19357        -6.89268
   H       -8.86416        -8.49696        -7.18360
   H       -7.02558       -12.44793        -2.97476
   H       -8.24888       -10.18606        -2.69407
   H       -6.35362       -13.32515        -6.75182
   H       -5.87169       -14.24949        -3.87274
   H       -5.42601       -16.30341        -2.91461
   H       -3.74512       -15.77561        -3.00675
   H       -4.79192       -18.64158        -3.07380
   H       -3.74735       -17.89613        -1.85620
   H       -2.01403       -17.53912        -3.69311
   H       -2.77025       -20.32116        -3.24478
   H       -1.74928       -19.42240        -2.33004
   H       -3.78412       -19.46200        -5.25444
   H       -2.28819       -18.69981        -5.80302
   H       -3.96851       -17.20701        -9.15301
   H       -3.25658       -19.68446        -7.50101
   H       -2.51634       -19.83957       -12.90027
   H       -3.23777       -18.12899       -11.11660
   H       -1.76445       -21.81282       -14.09300
   H       -1.04782       -24.19460       -14.77320
   H        0.06657       -28.99086       -14.22454
   H       -0.45975       -26.53823       -14.81445
   H       -0.23938       -29.67978       -10.36932
   H        0.14535       -31.02728       -13.09135
   H        0.11599       -33.04381       -11.85925
   H        1.86675       -30.27674        -6.45697
   H        1.44370       -31.57016        -4.40890
   H        0.57309       -33.86436        -4.53200
   H        0.08714       -34.91143        -6.69561
*
