# ORCA input file
# SCF done       -206.489034576589          0.000834291736
! CAM-B3LYP def2-SVP def2/J RIJCOSX Grid4 TightSCF
%maxcore 5000
%tddft
    Mode sTDDFT
    Ethresh 5.0
    maxcore 5000
end

%pal
  nprocs 6
  end
* xyz 0 1
   C        0.41883       -17.27225         5.01237
   C        0.83481       -18.34114         4.23079
   C        1.34862       -18.14131         2.95837
   C        1.46924       -16.86334         2.43087
   C        1.05412       -15.79138         3.20050
   C        0.52242       -15.99197         4.49434
   C        0.14971       -14.69736         5.05534
   C       -0.29436       -14.47700         6.33527
   C       -0.44359       -15.48886         7.30587
   N       -0.58658       -16.25708         8.14719
   C       -0.62252       -13.22165         6.88417
   N       -0.90540       -12.23406         7.40049
   C        0.32866       -13.71653         3.99796
   C        1.07913       -14.36050         2.93779
   C        1.90678       -13.72342         2.04624
   C        2.14670       -12.33507         2.08388
   N        2.39982       -11.21551         2.12839
   C        2.68452       -14.39060         1.08114
   N        3.32354       -14.88493         0.26536
   C       -0.21324       -12.45130         4.01841
   C       -0.54928       -11.59795         2.94893
   C       -0.89914       -10.28050         3.20525
   C       -1.29875        -9.36049         2.25513
   C       -1.42903        -9.72479         0.84250
   C       -1.18721       -10.96175         0.35813
   S       -0.67589       -12.28055         1.32346
   C       -1.87492        -8.54345         0.19064
   C       -2.03881        -7.51099         1.12285
   C       -2.45252        -6.31003         0.49895
   C       -2.60028        -6.46425        -0.84168
   S       -2.24231        -8.06020        -1.41195
   C       -1.68714        -8.00504         2.42534
   C       -1.71695        -7.32869         3.66120
   C       -2.36024        -6.15042         3.89909
   C       -2.38507        -5.48434         5.14204
   S       -3.49181        -4.13431         5.35325
   C       -2.95984        -3.93491         6.96900
   C       -1.96242        -4.85254         7.32181
   C       -1.64671        -5.72689         6.29839
   C       -1.50970        -4.62542         8.74570
   C       -1.77583        -5.85530         9.61833
   C       -0.03081        -4.23172         8.80082
   C       -2.40243        -3.47056         9.13818
   C       -3.23657        -3.10520         8.07263
   S       -4.29383        -1.82123         8.47420
   C       -3.61321        -1.75420        10.09069
   C       -2.61112        -2.70441        10.26996
   C       -4.14964        -0.81174        10.99366
   C       -3.68789        -0.54811        12.24517
   C       -4.29378         0.37567        13.14362
   C       -5.58394         0.84928        13.01396
   C       -6.18831         1.76170        13.86546
   C       -5.47058         2.35306        14.99173
   C       -4.20803         2.01157        15.33976
   S       -3.27000         0.86182        14.48174
   C       -6.37850         3.28445        15.56882
   C       -7.58389         3.28761        14.86291
   C       -8.50572         4.20656        15.40944
   C       -7.98888         4.85807        16.48491
   S       -6.37351         4.38967        16.88271
   C       -7.49483         2.31914        13.79679
   C       -8.43207         1.94889        12.83201
   C       -9.67818         2.48358        12.60236
   C      -10.55331         2.04364        11.60390
   C      -10.28607         1.24032        10.50401
   C      -11.27508         0.39453         9.86338
   C      -12.63802         0.41020        10.03615
   C      -13.36231         1.29434        10.86038
   N      -14.03418         1.96689        11.50642
   C      -13.52909        -0.45782         9.37353
   N      -14.31625        -1.12673         8.87083
   C      -10.54932        -0.53666         9.00307
   C       -9.17888        -0.19742         9.02444
   C       -8.25343        -0.94654         8.31815
   C       -8.70184        -2.03705         7.58728
   C      -10.04849        -2.36395         7.55341
   C      -10.98469        -1.61941         8.25754
   C       -9.01952         0.99418         9.84732
   C       -7.93772         1.84479         9.78766
   C       -6.72462         1.52924         9.15532
   N       -5.68428         1.29097         8.72615
   C       -7.91430         3.13588        10.34896
   N       -7.84774         4.21165        10.74540
   H        0.02054       -17.44857         5.99798
   H        0.75251       -19.34351         4.62251
   H        1.65857       -18.98961         2.36737
   H        1.86507       -16.71743         1.43869
   H       -0.51725       -12.07393         4.98582
   H       -0.82226        -9.96390         4.23680
   H       -1.30624       -11.21544        -0.68341
   H       -2.61888        -5.37188         0.99507
   H       -2.90192        -5.72390        -1.55657
   H       -1.22047        -7.81881         4.48674
   H       -2.94426        -5.69979         3.11056
   H       -0.90634        -6.50275         6.36233
   H       -1.18185        -6.69637         9.27028
   H       -2.82737        -6.13001         9.57562
   H       -1.51245        -5.64411        10.65164
   H        0.58732        -5.05066         8.44191
   H        0.25503        -3.99873         9.82344
   H        0.15215        -3.35771         8.17976
   H       -2.08130        -2.82008        11.19759
   H       -4.98276        -0.24217        10.60620
   H       -2.78443        -1.02861        12.59357
   H       -6.15676         0.45987        12.18531
   H       -3.69997         2.44332        16.18727
   H       -9.49672         4.39354        15.04052
   H       -8.46525         5.60651        17.08747
   H       -8.13845         1.11185        12.21176
   H      -10.05306         3.24090        13.27276
   H      -11.59141         2.30757        11.75614
   H       -7.20270        -0.70578         8.33424
   H       -7.98910        -2.63449         7.03919
   H      -10.37852        -3.21265         6.97377
   H      -12.02600        -1.89264         8.21944
*
