# ORCA input file
# SCF done       -216.851740547534          0.000344383251
! CAM-B3LYP def2-SVP def2/J RIJCOSX Grid4 TightSCF
%maxcore 5000
%tddft
    Mode sTDDFT
    Ethresh 5.0
    maxcore 5000
end

%pal
  nprocs 6
  end
* xyz 0 1
   C       -3.24159         1.43346         7.00098
   C       -2.02808         2.08533         6.84354
   C       -1.15599         1.73998         5.82017
   C       -1.47574         0.73552         4.91976
   C       -2.68531         0.07600         5.06701
   C       -3.57228         0.42124         6.11291
   C       -4.74551        -0.43803         6.04190
   C       -5.88304        -0.31440         6.79050
   C       -6.08244         0.68584         7.76672
   N       -6.30719         1.47046         8.57336
   C       -7.02974        -1.12891         6.67101
   N       -7.99691        -1.74580         6.62390
   C       -4.46214        -1.44901         5.02284
   C       -3.29332        -0.98239         4.27803
   C       -2.98371        -1.29655         2.98369
   C       -3.77477        -2.12321         2.15811
   N       -4.41060        -2.72372         1.41517
   C       -1.88069        -0.75776         2.28877
   N       -0.98774        -0.36273         1.68583
   C       -5.10796        -2.63849         4.91192
   C       -4.66331        -3.81978         4.21905
   C       -5.62512        -4.67891         3.66380
   C       -5.22049        -5.82053         3.01812
   C       -3.85041        -6.12904         2.91967
   C       -2.89477        -5.31224         3.51011
   C       -3.30581        -4.16607         4.15413
   C       -3.70230        -7.33967         2.14634
   C       -4.97977        -7.77676         1.75771
   C       -6.05329        -6.87596         2.32874
   C       -6.86715        -7.72332         3.33649
   C       -7.88713        -6.96558         4.17562
   C       -6.94938        -6.27692         1.23364
   C       -6.14921        -5.55250         0.15707
   C       -5.13096        -8.91477         1.00428
   C       -3.99425        -9.64192         0.62057
   C       -2.72697        -9.19912         1.02228
   C       -2.57171        -8.05612         1.77680
   C       -4.12762       -10.85155        -0.14929
   S       -2.87809       -12.06973        -0.13834
   C       -3.74390       -13.18029        -1.15559
   C       -4.96481       -12.61078        -1.51338
   C       -5.16280       -11.30721        -0.93632
   N       -6.37729       -10.84270        -1.34441
   C       -6.94541       -11.80285        -2.14589
   N       -8.21445       -11.57647        -2.70156
   O       -8.74546       -10.50972        -2.42735
   O       -8.69673       -12.44142        -3.40638
   C       -6.12642       -12.90284        -2.26664
   C       -3.18195       -14.46283        -1.47429
   C       -3.73700       -15.26464        -2.48493
   C       -3.20206       -16.50447        -2.73101
   C       -2.10242       -16.97390        -1.99038
   C       -1.52708       -16.17758        -1.00863
   C       -2.06937       -14.93615        -0.76041
   C       -1.77784       -18.30568        -2.44379
   C       -2.67501       -18.66140        -3.46773
   C       -3.64037       -17.53428        -3.74468
   C       -5.09954       -17.96972        -3.51336
   C       -5.34742       -18.48971        -2.10240
   C       -3.48066       -17.00623        -5.18399
   C       -2.06146       -16.54941        -5.49800
   C       -2.60439       -19.89824        -4.05661
   C       -1.59466       -20.79092        -3.66318
   C       -0.71853       -20.43044        -2.62838
   C       -0.80808       -19.20151        -2.01208
   C       -1.53616       -22.08972        -4.28252
   C       -0.43601       -22.85409        -4.50456
   C       -0.46020       -24.29389        -4.76601
   C       -1.51950       -25.03589        -5.20905
   C       -2.78849       -24.51978        -5.54998
   N       -3.83797       -24.16751        -5.85409
   C       -1.46998       -26.42904        -5.43270
   N       -1.49614       -27.55899        -5.63078
   C        0.87369       -24.79383        -4.46466
   C        1.72985       -23.69668        -4.21382
   C        3.06019       -23.89930        -3.88383
   C        3.53153       -25.20069        -3.80590
   C        2.69482       -26.27915        -4.05881
   C        1.36196       -26.08946        -4.39038
   C        0.97097       -22.47013        -4.39251
   C        1.49462       -21.23578        -4.66020
   C        2.87290       -20.94021        -4.60681
   N        3.98046       -20.64400        -4.55756
   C        0.73547       -20.13422        -5.10803
   N        0.18776       -19.22518        -5.54443
   H       -3.90346         1.71131         7.80463
   H       -1.75840         2.87156         7.53189
   H       -0.21428         2.25806         5.72295
   H       -0.78817         0.47036         4.13291
   H       -6.03854        -2.75558         5.45189
   H       -6.66474        -4.39433         3.71057
   H       -1.84679        -5.56695         3.46363
   H       -2.57585        -3.53745         4.64477
   H       -6.15958        -8.21893         4.00710
   H       -7.38335        -8.50196         2.77048
   H       -7.39824        -6.26251         4.84397
   H       -8.44594        -7.67345         4.78404
   H       -8.59528        -6.42827         3.55115
   H       -7.64654        -5.57346         1.68928
   H       -7.53423        -7.08091         0.78048
   H       -5.59068        -4.72327         0.58311
   H       -6.82108        -5.15883        -0.60182
   H       -5.44573        -6.22877        -0.32475
   H       -6.11464        -9.27007         0.73992
   H       -1.85976        -9.77005         0.72367
   H       -1.58752        -7.72777         2.07408
   H       -6.79304        -9.93696        -1.19728
   H       -6.37310       -13.78357        -2.82217
   H       -4.56316       -14.89755        -3.06932
   H       -0.67521       -16.52452        -0.44395
   H       -1.64293       -14.31028         0.01020
   H       -5.34983       -18.74853        -4.23593
   H       -5.75351       -17.11685        -3.70482
   H       -4.72128       -19.35479        -1.89481
   H       -6.38805       -18.78468        -1.99154
   H       -5.12699       -17.72202        -1.36362
   H       -4.17264       -16.17276        -5.32415
   H       -3.76726       -17.79862        -5.87779
   H       -1.75218       -15.75609        -4.82049
   H       -2.01370       -16.16869        -6.51531
   H       -1.35943       -17.37407        -5.40933
   H       -3.28586       -20.18621        -4.84315
   H        0.01115       -21.14866        -2.28133
   H       -0.13792       -18.94461        -1.20575
   H       -2.49964       -22.51097        -4.53861
   H        3.71656       -23.06909        -3.67856
   H        4.56359       -25.37514        -3.54300
   H        3.08442       -27.28347        -3.99361
   H        0.72599       -26.93890        -4.57768
*
