# ORCA input file
# SCF done       -205.507571687836          0.000677837167
! CAM-B3LYP def2-SVP def2/J RIJCOSX Grid4 TightSCF
%maxcore 5000
%tddft
    Mode sTDDFT
    Ethresh 5.0
    maxcore 5000
end

%pal
  nprocs 6
  end
* xyz 0 1
   C       -7.78819         2.37542         3.70147
   C       -9.09224         2.45698         4.16538
   C       -9.86901         1.31756         4.32571
   C       -9.35876         0.06109         4.03816
   C       -8.05491        -0.03416         3.57911
   C       -7.26683         1.12644         3.39974
   C       -5.96437         0.74037         2.87498
   C       -4.89346         1.56827         2.68062
   C       -4.89632         2.94872         2.97628
   N       -4.83267         4.07400         3.19170
   C       -3.63106         1.16377         2.19565
   N       -2.58216         0.90406         1.80831
   C       -6.03834        -0.68996         2.58694
   C       -7.25246        -1.19582         3.23265
   C       -7.47735        -2.47223         3.66786
   C       -6.55989        -3.53755         3.58706
   N       -5.84243        -4.43378         3.63728
   C       -8.64203        -2.86756         4.35997
   N       -9.56707        -3.24764         4.92223
   C       -5.19635        -1.37408         1.76787
   C       -5.45686        -2.66039         1.20883
   S       -4.18385        -3.84964         1.23617
   C       -5.26416        -5.06211         0.62028
   C       -6.49016        -4.52977         0.28756
   C       -6.60530        -3.16981         0.63184
   C       -7.83038        -2.39425         0.27524
   C       -9.05260        -3.31347         0.28945
   O       -9.25631        -3.73805         1.61831
   C      -10.50524        -4.34053         1.86966
   C       -8.80487        -4.47725        -0.69552
   O       -8.56877        -3.88270        -1.95512
   C       -8.76593        -4.73426        -3.05740
   C       -7.63906        -5.34794        -0.20819
   C       -4.85740        -6.43214         0.67500
   S       -4.96539        -7.58464        -0.62653
   C       -4.24947        -8.88659         0.29663
   C       -3.96174        -8.42918         1.58743
   C       -4.30041        -7.05144         1.77417
   N       -4.02810        -6.69712         3.05430
   C       -3.53279        -7.81081         3.68249
   N       -3.16483        -7.74561         5.04317
   O       -3.30729        -6.66984         5.59716
   O       -2.73276        -8.75378         5.56308
   C       -3.45892        -8.89028         2.82464
   C       -4.03409       -10.17336        -0.23259
   S       -3.42655       -11.42442         0.80479
   C       -3.50298       -12.60400        -0.47978
   C       -3.92124       -12.00186        -1.67068
   C       -4.22732       -10.64829        -1.53245
   C       -4.68519        -9.79348        -2.66601
   C       -4.79556       -10.55335        -3.99322
   O       -6.07179       -11.15153        -4.04068
   C       -6.50145       -11.55846        -5.31696
   C       -3.66000       -11.59313        -4.08727
   O       -2.45413       -10.88439        -3.92644
   C       -1.28824       -11.64229        -4.14146
   C       -3.92365       -12.65310        -3.00870
   C       -3.07288       -13.90876        -0.19219
   C       -3.38883       -15.08784        -0.82984
   C       -2.56886       -16.29036        -0.77773
   C       -1.45545       -16.51048        -0.00868
   C       -0.87600       -15.59857         0.89840
   N       -0.32747       -14.91400         1.63991
   C       -0.71738       -17.71332        -0.01118
   N       -0.07124       -18.66066         0.04348
   C       -3.11862       -17.22211        -1.75556
   C       -4.27985       -16.65313        -2.32429
   C       -4.98089       -17.32157        -3.31382
   C       -4.52131       -18.56242        -3.73001
   C       -3.38943       -19.12905        -3.16340
   C       -2.67754       -18.46763        -2.17339
   C       -4.53464       -15.37854        -1.66830
   C       -5.74005       -14.71883        -1.66532
   C       -6.82572       -15.05674        -2.49781
   N       -7.72775       -15.25455        -3.18029
   C       -6.08303       -13.68028        -0.77641
   N       -6.45017       -12.87606        -0.04400
   H       -7.20296         3.27133         3.57583
   H       -9.50898         3.42442         4.39999
   H      -10.88483         1.40895         4.67846
   H       -9.97161        -0.81753         4.15688
   H       -4.24696        -0.92793         1.50242
   H       -7.71975        -2.01421        -0.74397
   H       -7.99541        -1.55240         0.94551
   H       -9.93149        -2.74965        -0.06379
   H      -10.58533        -4.42787         2.95201
   H      -10.57809        -5.33591         1.42026
   H      -11.32321        -3.71690         1.49175
   H       -9.70925        -5.10398        -0.75833
   H       -8.63509        -4.11505        -3.94242
   H       -9.77760        -5.15741        -3.05439
   H       -8.03948        -5.55352        -3.08273
   H       -7.31315        -6.01204        -1.01090
   H       -7.99332        -5.97440         0.61612
   H       -4.29973        -5.83535         3.51715
   H       -3.09806        -9.86554         3.07838
   H       -3.98754        -8.96207        -2.79062
   H       -5.67448        -9.38578        -2.44129
   H       -4.68807        -9.83755        -4.82291
   H       -6.47028       -10.72432        -6.02768
   H       -7.52862       -11.89584        -5.19373
   H       -5.90093       -12.38385        -5.71449
   H       -3.66951       -12.08246        -5.07635
   H       -0.46430       -10.93169        -4.14994
   H       -1.32704       -12.16687        -5.10361
   H       -1.12016       -12.37261        -3.34245
   H       -3.19432       -13.46531        -3.05259
   H       -4.91211       -13.07334        -3.22315
   H       -2.37053       -13.97226         0.62913
   H       -5.86031       -16.89107        -3.76433
   H       -5.05467       -19.09175        -4.50475
   H       -3.05225       -20.09841        -3.49712
   H       -1.79983       -18.92411        -1.74724
*
