# ORCA input file
# SCF done       -199.624689018798          0.000979383018
! CAM-B3LYP def2-SVP def2/J RIJCOSX Grid4 TightSCF
%maxcore 5000
%tddft
    Mode sTDDFT
    Ethresh 5.0
    maxcore 5000
end

%pal
  nprocs 6
  end
* xyz 0 1
   C      -12.42643        -4.33863         1.08043
   C      -12.85059        -5.30409         1.98118
   C      -12.22222        -6.53890         2.05436
   C      -11.15423        -6.84673         1.22477
   C      -10.71893        -5.89012         0.32252
   C      -11.35438        -4.62901         0.25166
   C      -10.68825        -3.82147        -0.76091
   C      -11.08026        -2.58419        -1.19812
   C      -12.20135        -1.88603        -0.70225
   N      -13.09534        -1.26310        -0.34130
   C      -10.44904        -1.85401        -2.22728
   N       -9.98829        -1.21356        -3.06165
   C       -9.54160        -4.59111        -1.22079
   C       -9.67035        -5.93715        -0.68633
   C       -9.04809        -7.06625        -1.14950
   C       -8.33371        -7.15119        -2.36196
   N       -7.83567        -7.32549        -3.38175
   C       -9.16009        -8.33283        -0.53908
   N       -9.18723        -9.38196        -0.07344
   C       -8.44399        -4.05464        -1.84141
   C       -7.23767        -4.68438        -2.02757
   C       -6.11556        -5.14001        -2.18328
   C       -4.89028        -5.73409        -2.36368
   S       -4.60017        -7.38184        -1.85603
   C       -2.97230        -7.29990        -2.46059
   C       -2.69424        -6.06132        -3.01815
   C       -3.76658        -5.18351        -2.96050
   C       -2.10963        -8.37859        -2.38011
   C       -1.35191        -9.32687        -2.32365
   C       -0.43945       -10.37599        -2.31456
   C       -0.65177       -11.54480        -1.67507
   C        0.25389       -12.66862        -1.64916
   C        0.00281       -13.71742        -0.74860
   C        0.85461       -14.79324        -0.69892
   C        1.96649       -14.86066        -1.55607
   C        2.22007       -13.83830        -2.45908
   C        1.36808       -12.75453        -2.49583
   C        2.67671       -16.09267        -1.29549
   C        2.01327       -16.78450        -0.26759
   C        0.79450       -16.01536         0.18895
   C        0.89292       -15.63321         1.67742
   C        2.14887       -14.83323         2.00157
   C       -0.49616       -16.82093        -0.05196
   C       -0.67083       -17.23945        -1.50688
   C        2.49676       -17.98745         0.18536
   C        3.64917       -18.53989        -0.39691
   C        4.29460       -17.83684        -1.42340
   C        3.82229       -16.62131        -1.87237
   C        4.14141       -19.80624         0.09435
   C        5.04559       -20.58823        -0.52868
   C        5.52546       -21.78811        -0.01361
   C        5.98817       -22.82378         0.42098
   C        6.57158       -23.99758         0.86663
   S        7.50668       -24.98060        -0.22565
   C        7.87314       -26.10257         1.06354
   C        7.28326       -25.71156         2.25240
   C        6.54972       -24.53534         2.14057
   C        8.66887       -27.20251         0.82580
   C        9.39304       -28.14617         0.56297
   C       10.23310       -29.20192         0.27319
   C       10.72103       -30.05355         1.21757
   C       11.53312       -31.18645         0.97713
   C       12.32480       -31.48810        -0.10026
   C       12.74986       -32.84405        -0.43479
   C       12.78598       -33.93628         0.39045
   C       12.45615       -33.94644         1.76241
   N       12.21413       -34.03988         2.88127
   C       13.21951       -35.21664        -0.01506
   N       13.56089       -36.28141        -0.27483
   C       13.15187       -32.82531        -1.83586
   C       13.15857       -31.48724        -2.28887
   C       13.48335       -31.18618        -3.60099
   C       13.80359       -32.22804        -4.45848
   C       13.80659       -33.54230        -4.01366
   C       13.48244       -33.85549        -2.70192
   C       12.80284       -30.62356        -1.17237
   C       13.12143       -29.29502        -1.07190
   C       13.68009       -28.53953        -2.12304
   N       14.11563       -27.87244        -2.94955
   C       13.00733       -28.54277         0.11527
   N       12.97053       -27.89356         1.06077
   H      -12.92437        -3.38390         1.03774
   H      -13.68132        -5.08733         2.63522
   H      -12.56748        -7.27301         2.76626
   H      -10.67342        -7.80888         1.29372
   H       -8.47451        -3.01791        -2.15274
   H       -1.73681        -5.82663        -3.44773
   H       -3.75366        -4.17774        -3.34096
   H        0.47646       -10.19073        -2.86089
   H       -1.57024       -11.66270        -1.11331
   H       -0.85672       -13.65945        -0.09567
   H        3.06914       -13.88896        -3.12424
   H        1.55954       -11.96591        -3.20714
   H        0.88152       -16.54759         2.27447
   H        0.01100       -15.04840         1.94722
   H        3.04229       -15.40485         1.75976
   H        2.17321       -14.58836         3.06092
   H        2.17149       -13.90575         1.43352
   H       -1.34981       -16.21301         0.25503
   H       -0.47571       -17.71074         0.58094
   H       -0.71503       -16.36737        -2.15561
   H       -1.59332       -17.80304        -1.62527
   H        0.15846       -17.86513        -1.82978
   H        1.99573       -18.52369         0.97913
   H        5.19514       -18.24026        -1.86044
   H        4.33939       -16.09024        -2.65753
   H        3.72469       -20.14635         1.03445
   H        5.45088       -20.31627        -1.49514
   H        7.39286       -26.27571         3.16138
   H        6.02038       -24.07023         2.95294
   H       10.46091       -29.34603        -0.77670
   H       10.38737       -29.91853         2.23781
   H       11.44975       -31.95401         1.73605
   H       13.47630       -30.16962        -3.95982
   H       14.05119       -32.01058        -5.48624
   H       14.06042       -34.33716        -4.69824
   H       13.48346       -34.88276        -2.37692
*
