# ORCA input file
# SCF done       -216.797967828564          0.000458177612
! CAM-B3LYP def2-SVP def2/J RIJCOSX Grid4 TightSCF
%maxcore 5000
%tddft
    Mode sTDDFT
    Ethresh 5.0
    maxcore 5000
end

%pal
  nprocs 6
  end
* xyz 0 1
   C       -2.12296        -3.12651        -5.29620
   C       -2.29305        -4.46282        -5.53463
   C       -3.29055        -4.98806        -6.38429
   N       -4.09638        -5.47181        -7.04255
   C       -1.45150        -5.48317        -5.03999
   N       -0.78603        -6.36675        -4.73547
   C       -2.80893        -2.05327        -6.01259
   C       -2.06877        -0.86476        -5.87238
   C       -2.45699         0.30727        -6.48940
   C       -3.61646         0.29749        -7.25466
   C       -4.36747        -0.87725        -7.38467
   C       -3.96893        -2.05859        -6.76951
  Cl       -5.80725        -0.86934        -8.31945
  Cl       -4.12979         1.73413        -8.04178
   C       -0.90374        -1.10818        -4.99437
   O       -0.02610        -0.33570        -4.69183
   C       -1.06971        -2.50740        -4.51007
   C       -0.33933        -2.94332        -3.45549
   C       -0.55241        -4.11030        -2.64171
   C       -1.84843        -4.57445        -2.35999
   C       -2.01213        -5.71454        -1.61408
   C       -0.88373        -6.40050        -1.12377
   C        0.39863        -5.92593        -1.35946
   C        0.55549        -4.77565        -2.10244
   C       -1.33179        -7.55164        -0.37488
   C       -2.73583        -7.57619        -0.39113
   C       -3.28450        -6.42967        -1.21334
   C       -4.22068        -5.53393        -0.38807
   C       -3.57410        -5.05676         0.90775
   C       -3.99488        -7.04053        -2.44589
   C       -4.79272        -6.06935        -3.30583
   C       -3.42338        -8.57162         0.25861
   C       -2.71222        -9.57584         0.92997
   C       -1.31130        -9.53470         0.94599
   C       -0.61869        -8.53092         0.30194
   C       -3.41573       -10.64227         1.59654
   S       -5.06484       -10.45343         2.13903
   C       -5.18562       -12.05605         2.79651
   C       -3.98165       -12.72388         2.59314
   C       -2.99868       -11.91350         1.92528
   N       -1.86751       -12.65898         1.77684
   C       -2.10238       -13.89303         2.33407
   N       -1.08632       -14.86235         2.31841
   O       -0.03199       -14.53650         1.79232
   O       -1.31740       -15.94611         2.81735
   C       -3.37367       -13.97459         2.85525
   C       -6.39145       -12.50514         3.43636
   C       -7.31448       -11.57279         3.93650
   C       -8.44099       -12.01715         4.58099
   C       -8.68472       -13.39502         4.72865
   C       -7.79229       -14.32461         4.21223
   C       -6.65556       -13.87594         3.57365
   C       -9.92124       -13.56926         5.45537
   C      -10.44277       -12.29721         5.76092
   C       -9.54212       -11.20890         5.22522
   C       -8.99443       -10.32841         6.36474
   C       -8.25255       -11.12916         7.42836
   C      -10.27106       -10.32715         4.19425
   C      -10.84344       -11.12722         3.03043
   C      -11.61670       -12.17836         6.45783
   C      -12.27677       -13.33776         6.90810
   C      -11.76350       -14.59769         6.56689
   C      -10.59743       -14.71911         5.84077
   C      -13.49019       -13.17131         7.65800
   C      -13.99063       -13.96106         8.64665
   C      -15.27650       -13.76403         9.30092
   C      -16.31357       -12.99518         8.84622
   C      -17.55040       -12.86143         9.51378
   N      -18.57396       -12.70575        10.00856
   C      -16.31392       -12.25185         7.64569
   N      -16.40283       -11.63400         6.68202
   C      -15.30106       -14.60089        10.49537
   C      -14.10675       -15.33801        10.55659
   C      -13.24396       -15.00310         9.40210
   O      -12.14038       -15.44954         9.18802
   C      -13.84770       -16.22230        11.58407
   C      -14.80669       -16.37813        12.57658
   C      -15.99893       -15.64543        12.52587
   C      -16.25463       -14.75488        11.48960
  Cl      -17.17221       -15.84123        13.76407
  Cl      -14.52641       -17.47203        13.86935
   H       -1.87140         1.20636        -6.38025
   H       -4.57201        -2.94418        -6.88753
   H        0.48831        -2.29965        -3.17282
   H       -2.69500        -3.99836        -2.70384
   H        1.25868        -6.44627        -0.96714
   H        1.54435        -4.39662        -2.31298
   H       -5.12922        -6.09377        -0.15727
   H       -4.49952        -4.66492        -0.98502
   H       -3.31838        -5.89913         1.54642
   H       -4.25864        -4.40909         1.45053
   H       -2.66455        -4.49746         0.69870
   H       -4.67075        -7.82216        -2.09250
   H       -3.23021        -7.51912        -3.06325
   H       -5.64142        -5.66257        -2.76224
   H       -5.17028        -6.59172        -4.18209
   H       -4.17471        -5.24687        -3.65306
   H       -4.50364        -8.60255         0.25639
   H       -0.76582       -10.27990         1.50376
   H        0.45989        -8.50972         0.32905
   H       -1.01515       -12.43051         1.29091
   H       -3.77441       -14.82682         3.36378
   H       -7.11278       -10.51705         3.82487
   H       -7.98225       -15.38274         4.30696
   H       -5.96834       -14.58728         3.14680
   H       -9.82930        -9.79782         6.82694
   H       -8.32119        -9.58292         5.93661
   H       -8.90765       -11.86973         7.88180
   H       -7.89152       -10.46545         8.21045
   H       -7.39897       -11.64644         6.99582
   H       -9.56778        -9.58411         3.81263
   H      -11.07902        -9.79443         4.69949
   H      -10.05308       -11.65114         2.49728
   H      -11.34652       -10.46203         2.33285
   H      -11.56388       -11.86105         3.38464
   H      -12.02772       -11.20812         6.69745
   H      -12.30720       -15.48327         6.84976
   H      -10.21771       -15.69497         5.58026
   H      -14.04123       -12.26834         7.41986
   H      -12.92344       -16.77765        11.61068
   H      -17.18097       -14.20432        11.48704
*
