# ORCA input file
# SCF done       -180.778792156437          0.000697656136
! CAM-B3LYP def2-SVP def2/J RIJCOSX Grid4 TightSCF
%maxcore 5000
%tddft
    Mode sTDDFT
    Ethresh 5.0
    maxcore 5000
end

%pal
  nprocs 6
  end
* xyz 0 1
   C        2.15002        -2.78840        -1.50526
   C        2.08194        -3.86631        -2.34203
   C        2.05727        -3.76647        -3.74838
   N        2.02400        -3.72994        -4.89475
   C        2.17068        -5.20329        -1.89462
   N        2.37899        -6.29305        -1.60018
   C        2.42072        -1.40881        -1.90364
   C        2.88340        -0.69250        -0.78289
   C        3.25853         0.63291        -0.87580
   C        3.16018         1.26161        -2.11069
   C        2.69028         0.55894        -3.22650
   C        2.32242        -0.77897        -3.13268
  Cl        2.56130         1.35473        -4.74193
  Cl        3.61399         2.91068        -2.26469
   C        2.86007        -1.56711         0.40929
   O        3.21901        -1.30673         1.53468
   C        2.23023        -2.82879        -0.05901
   C        1.70793        -3.70098         0.84567
   C        0.74853        -4.70661         0.60748
   N        0.36009        -5.59627         1.62595
   C       -0.59878        -6.35501         1.08151
   N       -1.46722        -7.36004         1.27341
   C       -2.15652        -7.48468         0.05204
   N       -1.75740        -6.61185        -0.85140
   C       -0.78855        -5.89316        -0.25174
   N        0.05594        -4.88579        -0.50720
   C       -3.17272        -8.45512        -0.12988
   C       -3.80038        -8.61613        -1.32101
   C       -4.83697        -9.53944        -1.57321
   S       -5.53656       -10.57756        -0.34278
   C       -6.67190       -11.30356        -1.43113
   C       -6.51891       -10.77560        -2.71704
   C       -5.48717        -9.78557        -2.77485
   N       -5.40733        -9.32454        -4.04989
   C       -6.34896        -9.98888        -4.79332
   N       -6.49446        -9.71111        -6.16547
   O       -5.75251        -8.86440        -6.63233
   O       -7.34202       -10.32750        -6.78031
   C       -7.05393       -10.88658        -4.01893
   C       -7.58004       -12.26317        -0.94009
   N       -8.53916       -12.88766        -1.75942
   C       -9.21344       -13.70404        -0.93497
   N      -10.20470       -14.59395        -0.83120
   C      -10.22079       -14.96730         0.52840
   N       -9.28848       -14.34436         1.23331
   C       -8.64472       -13.55444         0.36399
   N       -7.63971       -12.65782         0.31693
   C      -11.13706       -15.89582         1.06319
   C      -12.09471       -16.54189         0.34026
   C      -12.99133       -17.46263         0.91606
   C      -13.95125       -18.14156         0.21037
   C      -14.89863       -19.10700         0.73280
   C      -15.07234       -19.47478         2.04140
   C      -16.02235       -20.42310         2.47786
   N      -16.76923       -21.18505         2.90075
   C      -14.35062       -18.96492         3.14171
   N      -13.81595       -18.59875         4.08951
   C      -15.67011       -19.62277        -0.39715
   C      -15.24264       -18.98033        -1.57215
   C      -14.16493       -18.02316        -1.25041
   O      -13.58749       -17.30157        -2.04004
   C      -15.79642       -19.26700        -2.80324
   C      -16.80186       -20.22324        -2.86706
   C      -17.23266       -20.87055        -1.70322
   C      -16.67345       -20.57560        -0.46430
  Cl      -18.47292       -22.05398        -1.79546
  Cl      -17.51464       -20.61198        -4.38001
   H        3.61806         1.16559        -0.00960
   H        1.96061        -1.29241        -4.00865
   H        1.98861        -3.53425         1.87985
   H        0.78035        -5.65555         2.53928
   H       -1.60610        -7.93731         2.08631
   H       -3.43850        -9.07207         0.71714
   H       -3.48416        -7.98657        -2.14083
   H       -4.78593        -8.62859        -4.43245
   H       -7.83706       -11.51569        -4.39042
   H       -8.66431       -12.72993        -2.74466
   H      -10.82489       -14.94640        -1.54225
   H      -11.03523       -16.07455         2.12418
   H      -12.19673       -16.36647        -0.71988
   H      -12.89517       -17.63654         1.97934
   H      -15.45386       -18.76094        -3.69207
   H      -17.03184       -21.09578         0.40872
*
