# ORCA input file
# SCF done       -171.072479568677          0.000251446023
! CAM-B3LYP def2-SVP def2/J RIJCOSX Grid4 TightSCF
%maxcore 5000
%tddft
    Mode sTDDFT
    Ethresh 5.0
    maxcore 5000
end

%pal
  nprocs 6
  end
* xyz 0 1
   C      -10.88216        -8.55161        -9.18738
   O      -10.31677        -8.66018        -7.97066
   C      -10.36582        -9.49813       -10.01585
   C      -10.40073       -10.05998       -11.37561
   O      -11.04825        -9.75710       -12.34225
   N       -9.46961       -11.09056       -11.32441
   C       -8.83195       -11.26872       -10.09301
   O       -7.99963       -12.11010        -9.86785
   C       -9.41656       -10.23528        -9.24663
   C       -9.41622        -9.68410        -7.98044
   C       -8.69796        -9.98456        -6.79201
   C       -7.78543       -10.98222        -6.71840
   C       -7.04954       -11.30215        -5.54942
   O       -6.13725       -12.32126        -5.62593
   C       -5.58308       -12.41342        -4.41775
   C       -4.70850       -13.22587        -3.66142
   C       -4.08560       -14.46019        -4.20136
   O       -3.58562       -14.51045        -5.30154
   N       -4.25932       -15.55410        -3.41581
   C       -4.73945       -12.66901        -2.38129
   O       -5.59676       -11.59174        -2.32561
   C       -6.12548       -11.45842        -3.55281
   C       -7.08383       -10.74647        -4.27114
   C       -4.24066       -13.04767        -1.09955
   S       -5.20480       -12.44349         0.21299
   C       -4.39351       -13.41535         1.34387
   C       -3.38675       -14.17950         0.78365
   C       -3.25053       -13.91737        -0.63566
   C       -2.18356       -14.50031        -1.38080
   C       -1.43823       -15.47493        -0.74560
   C       -1.64103       -15.82328         0.58798
   C       -2.54929       -15.16591         1.38831
   O       -2.53274       -15.57056         2.68845
   C       -3.27489       -14.93973         3.69943
   C       -1.78020       -13.99902        -2.67707
   C       -1.16106       -14.76929        -3.59503
   C       -0.46803       -14.41300        -4.78475
   S        0.17595       -15.76061        -5.69077
   C        1.17486       -14.75200        -6.62698
   C        1.03790       -13.42754        -6.29010
   C        0.04415       -13.21196        -5.27674
   C       -0.30262       -11.89608        -4.86197
   S        0.78498       -10.60184        -5.02127
   O        1.95538       -10.63639        -3.69268
   C        2.27835       -11.87973        -3.15299
   C        1.86336       -11.13335        -6.32392
   C        1.82267       -12.37665        -6.84237
   O        2.64560       -10.18613        -6.89639
   C        2.73837        -8.92578        -6.26860
   C       -1.60461       -11.45516        -4.46023
   C       -1.78830       -10.38823        -3.64859
   C       -3.01095        -9.67586        -3.45482
   S       -3.37285        -8.97760        -1.91116
   C       -4.78065        -8.20726        -2.49799
   C       -4.97656        -8.44565        -3.84116
   C       -3.97048        -9.30830        -4.39694
   C       -3.99515        -9.61164        -5.77676
   C       -4.97031        -9.07153        -6.56011
   C       -5.96264        -8.22307        -6.02760
   C       -5.98855        -7.92013        -4.69607
   O       -6.98124        -7.12003        -4.20769
   H      -11.61481        -7.78139        -9.32413
   H       -9.26640       -11.67443       -12.12333
   H       -8.91801        -9.35998        -5.93994
   H       -7.57322       -11.58984        -7.58775
   H       -4.54896       -15.47152        -2.45819
   H       -3.82501       -16.41351        -3.70965
   H       -7.72225        -9.95778        -3.93632
   H       -4.72919       -13.36659         2.35728
   H       -0.62251       -15.94262        -1.27398
   H       -1.02650       -16.58106         1.04710
   H       -2.94471       -15.40809         4.62706
   H       -4.34907       -15.11261         3.58148
   H       -3.06651       -13.86743         3.74901
   H       -1.94081       -12.94703        -2.85002
   H       -1.13491       -15.83731        -3.40761
   H        1.83097       -15.17014        -7.36398
   H        2.91776       -12.45670        -3.83203
   H        1.37253       -12.46091        -2.93696
   H        2.81265       -11.69434        -2.22098
   H        2.46045       -12.59864        -7.68559
   H        3.53834        -8.39987        -6.78658
   H        2.98303        -9.02057        -5.20743
   H        1.80482        -8.36354        -6.37515
   H       -2.44368       -11.98701        -4.88894
   H       -0.93548       -10.01333        -3.09289
   H       -5.36828        -7.62542        -1.81410
   H       -3.23231       -10.24843        -6.19394
   H       -4.99548        -9.28681        -7.61709
   H       -6.71812        -7.80475        -6.67245
   H       -6.82123        -6.93666        -3.27551
*
