# ORCA input file
# SCF done       -134.545850903951          0.000629437293
! CAM-B3LYP def2-SVP def2/J RIJCOSX Grid4 TightSCF
%maxcore 5000
%tddft
    Mode sTDDFT
    Ethresh 5.0
    maxcore 5000
end

%pal
  nprocs 6
  end
* xyz 0 1
   O        0.52490         2.06234        -2.09653
   C       -0.34558         1.38742        -1.30100
   N        0.09711         1.23310        -0.08397
   C        1.32700         1.83741        -0.06448
   C        1.57131         2.34454        -1.31797
   C        2.15443         1.87687         1.13136
   O        3.24360         2.38597         1.20164
   C       -1.58070         0.94486        -1.88040
   C       -2.56963         0.27491        -1.21344
   O       -3.72552        -0.12882        -1.83858
   C       -3.82764         0.19598        -3.16115
   C       -2.79660         0.89852        -3.84921
   C       -3.09273         1.12271        -5.15278
   S       -4.63889         0.47653        -5.56241
   C       -4.88512        -0.09895        -3.95605
   O       -1.64880         1.28452        -3.22536
   C       -2.50119        -0.05883         0.17612
   C       -3.47548        -0.73577         0.82281
   C       -3.39911        -1.03993         2.21688
   C       -4.31321        -1.71160         2.94016
   C       -5.58149        -2.29004         2.41800
   C       -4.07013        -1.94747         4.41374
   N       -3.30740        -3.16041         4.60534
   C       -3.80118        -4.29851         5.10353
   C       -3.07974        -5.45855         5.19733
   C       -3.50255        -6.67277         5.76098
   C       -4.72834        -7.02655         6.27931
   C       -5.04111        -8.27283         6.87207
   C       -6.32705        -8.38951         7.31593
   C       -7.10928        -7.24045         7.08802
   S       -6.15953        -6.00681         6.29962
   C       -8.43833        -6.98727         7.38409
   C       -9.39710        -7.78288         8.03751
   C      -10.61932        -7.18496         8.14976
   C      -10.69202        -5.88705         7.58296
   S       -9.13641        -5.45367         6.91117
   C      -11.81140        -5.09074         7.54150
   C      -11.93836        -3.81522         6.95972
   S      -13.51712        -3.03417         6.92713
   C      -12.96451        -1.63838         6.07800
   C      -11.61979        -1.74520         5.82365
   C      -11.04958        -2.95967         6.32841
   O       -9.72614        -3.00303         6.06494
   C       -9.44574        -1.86088         5.38670
   N       -8.12883        -1.66356         4.96723
   O       -7.90680        -0.68727         4.25819
   O       -7.26886        -2.46056         5.31305
   C      -10.54437        -1.05401         5.20579
   H        2.39828         2.88338        -1.73217
   H        1.67871         1.38126         1.99659
   H       -2.49834         1.62420        -5.88708
   H       -5.78441        -0.61515        -3.69307
   H       -1.61189         0.27083         0.68781
   H       -4.35202        -1.04653         0.27495
   H       -2.51582        -0.66397         2.72006
   H       -5.57147        -2.42012         1.34076
   H       -6.40211        -1.61882         2.67866
   H       -5.77884        -3.24955         2.89374
   H       -5.02201        -2.05477         4.93716
   H       -3.51074        -1.11019         4.84453
   H       -2.38482        -3.17857         4.19192
   H       -4.81272        -4.22722         5.47338
   H       -2.06369        -5.44137         4.82185
   H       -2.75429        -7.45554         5.79956
   H       -4.30125        -9.04992         6.95879
   H       -6.72952        -9.26622         7.79115
   H       -9.16658        -8.76522         8.41064
   H      -11.47583        -7.63609         8.61929
   H      -12.71287        -5.49250         7.98403
   H      -13.64812        -0.85496         5.82981
   H      -10.55519        -0.10841         4.70530
*
