# ORCA input file
# SCF done       -172.984102879293          0.000572085411
! CAM-B3LYP def2-SVP def2/J RIJCOSX Grid4 TightSCF
%maxcore 5000
%tddft
    Mode sTDDFT
    Ethresh 5.0
    maxcore 5000
end

%pal
  nprocs 6
  end
* xyz 0 1
   C      -17.89806        -5.70859         6.59484
   C      -17.20923        -6.55258         5.75042
   C      -17.41543        -7.94395         5.68146
   N      -17.52515        -9.08246         5.56830
   C      -16.20881        -6.18398         4.83038
   N      -15.38352        -5.99977         4.05042
   C      -18.92980        -6.13040         7.54225
   C      -19.41432        -4.98718         8.22304
   C      -20.39006        -5.05495         9.18542
   C      -20.91575        -6.31489         9.49457
   C      -20.42644        -7.45061         8.81030
   C      -19.43819        -7.38095         7.83454
   S      -21.21066        -8.90659         9.34686
   C      -22.17097        -7.97961        10.46882
   C      -21.92017        -6.64967        10.44413
  Br      -23.41512        -8.85602        11.56665
   C      -18.70168        -3.78878         7.72799
   O      -18.87799        -2.64359         8.09747
   C      -17.75317        -4.28360         6.71529
   C      -16.86415        -3.48850         6.01668
   C      -16.72794        -2.11272         6.14455
   C      -15.78281        -1.40521         5.41885
   C      -15.51819        -0.02001         5.44776
   C      -14.49945         0.37303         4.62131
   C      -13.91842        -0.68749         3.90450
   S      -14.70181        -2.19863         4.29950
   C      -12.86899        -0.69506         2.99516
   C      -12.05751         0.35257         2.51800
   C      -11.10275        -0.05772         1.63004
   C      -11.11729        -1.44595         1.36207
   S      -12.39327        -2.21286         2.28086
   C      -10.28256        -2.14935         0.52170
   C      -10.33832        -3.52215         0.27726
   S      -11.51562        -4.61897         0.99904
   C      -10.90696        -6.03416         0.17911
   C       -9.81820        -5.66884        -0.62416
   C       -9.52220        -4.28394        -0.55631
   O       -8.47611        -3.97669        -1.34116
   C       -8.09647        -5.15346        -1.91303
   N       -6.99907        -5.13194        -2.80253
   O       -6.68332        -6.19799        -3.29798
   O       -6.45560        -4.06768        -3.00924
   C       -8.87034        -6.21693        -1.51985
   C      -11.51319        -7.28364         0.36838
   S      -10.92236        -8.71210        -0.47706
   C      -12.14958        -9.67218         0.25794
   C      -12.96115        -8.90650         1.11544
   C      -12.60467        -7.56713         1.17877
   S      -14.21959        -9.84478         1.86977
   C      -13.65793       -11.26178         1.02598
   C      -14.08809       -12.58758         0.98866
   C      -13.31421       -13.36239         0.14806
   S      -12.02822       -12.43555        -0.60518
   C      -12.54525       -11.00687         0.20929
   C      -13.41891       -14.74531        -0.17775
   C      -14.39628       -15.56751         0.25041
   C      -14.49923       -16.96227        -0.10114
   C      -15.71315       -17.57069        -0.31891
   S      -17.33298       -16.89920        -0.25076
   S      -15.56230       -19.21866        -0.83685
   C      -13.82655       -19.09695        -0.74030
   O      -13.03121       -20.14919        -1.01074
   C      -13.39993       -17.86513        -0.32943
   C      -11.98180       -17.63973        -0.07461
   C      -11.47827       -16.90036         0.90347
   H      -20.73740        -4.16510         9.68668
   H      -19.09902        -8.27744         7.34325
   H      -22.42084        -5.93245        11.06865
   H      -16.20435        -3.97597         5.30827
   H      -17.36567        -1.57499         6.83042
   H      -16.08230         0.64549         6.07669
   H      -14.16032         1.38826         4.51658
   H      -12.19165         1.37040         2.83734
   H      -10.38941         0.59630         1.16049
   H       -9.51016        -1.60461        -0.00481
   H       -8.75488        -7.23178        -1.83992
   H      -13.10436        -6.82571         1.77592
   H      -14.92054       -12.96030         1.55512
   H      -12.64789       -15.13352        -0.82756
   H      -15.19474       -15.16991         0.86444
   H      -16.94887       -15.62494        -0.20726
   H      -13.55129       -20.92054        -1.26228
   H      -11.32641       -18.21315        -0.71704
   H      -12.10061       -16.35602         1.59298
   H      -10.41520       -16.81910         1.04849
*
