# ORCA input file
# SCF done       -202.538816069479          0.000891064969
! CAM-B3LYP def2-SVP def2/J RIJCOSX Grid4 TightSCF
%maxcore 5000
%tddft
    Mode sTDDFT
    Ethresh 5.0
    maxcore 5000
end

%pal
  nprocs 6
  end
* xyz 0 1
   C       -6.42871        -1.58842         0.38092
   C       -7.63895        -2.10996         0.74732
   C       -7.90833        -3.49210         0.84714
   N       -8.18595        -4.60062         0.95021
   C       -8.79185        -1.34602         1.03195
   N       -9.77212        -0.79187         1.25509
   C       -5.24878        -2.34120        -0.00862
   C       -4.25384        -1.43431        -0.46279
   C       -3.01297        -1.86213        -0.87911
   C       -2.75031        -3.23448        -0.85201
   C       -3.75192        -4.12986        -0.40411
   C       -5.00245        -3.70156         0.02168
   S       -3.20367        -5.77567        -0.45074
   C       -1.65584        -5.24707        -1.06280
   C       -1.55435        -3.90620        -1.22440
  Br       -0.32839        -6.51909        -1.42415
   C       -4.77516        -0.06050        -0.38863
   O       -4.20313         0.96381        -0.72784
   C       -6.11152        -0.17239         0.23995
   C       -6.80001         0.84848         0.81007
   C       -6.56463         2.25806         0.61372
   C       -6.38341         2.76735        -0.68331
   C       -6.27434         4.11710        -0.92988
   C       -6.32219         5.03629         0.11738
   C       -6.47267         4.56202         1.39761
   C       -6.60050         3.18821         1.66016
   N       -6.63894         2.97787         3.02195
   C       -6.79653         1.72988         3.71624
   C       -6.55225         4.16225         3.71762
   O       -6.50299         4.25853         4.91675
   C       -6.53024         5.29698         2.69900
   C       -7.82325         6.11517         2.87217
   C       -9.05935         5.24926         2.61613
   O       -9.30251         4.16519         3.09256
   N       -9.85489         5.91321         1.72732
   C      -11.10602         5.39364         1.24502
   C       -9.24716         7.07468         1.27066
   C       -9.70153         7.97202         0.32848
   C       -8.85568         9.02324        -0.04649
   C       -7.61047         9.16659         0.57283
   C       -7.18929         8.29132         1.56126
   C       -8.00635         7.23581         1.90129
   C       -9.25796         9.93501        -1.10066
   C       -8.38746        10.38380        -2.03041
   C       -8.68070        11.26992        -3.09371
   C       -7.82064        11.45407        -4.14106
   C       -7.92699        12.35435        -5.23295
   C       -6.91169        12.26395        -6.13504
   C       -5.96054        11.26262        -5.82963
   S       -6.36407        10.47975        -4.32184
   C       -4.87186        10.84291        -6.56776
   C       -4.34108        11.38207        -7.75938
   C       -3.26293        10.70026        -8.23719
   C       -2.89609         9.57210        -7.46178
   S       -3.95579         9.42968        -6.07635
   C       -1.87582         8.69496        -7.73391
   C       -1.54682         7.53508        -7.02422
   S       -2.42569         6.88579        -5.64579
   C       -1.38747         5.48728        -5.46801
   C       -0.38757         5.53605        -6.44191
   C       -0.49489         6.66641        -7.29075
   O        0.48067         6.67088        -8.21848
   C        1.21278         5.55081        -7.97047
   N        2.32434         5.29670        -8.80767
   O        2.96208         4.28839        -8.57236
   O        2.56102         6.09235        -9.69161
   C        0.74238         4.81884        -6.91039
   C       -1.60192         4.51130        -4.47283
   S       -0.47941         3.19866        -4.26812
   C       -1.42484         2.55684        -2.96976
   C       -0.87389         1.36148        -2.33052
   O        0.17982         0.88783        -2.68218
   O       -1.56822         0.80910        -1.33144
   C       -2.54468         3.31994        -2.71762
   C       -2.64461         4.42444        -3.56246
   H       -2.25199        -1.16966        -1.20073
   H       -5.73283        -4.41401         0.36707
   H       -0.67628        -3.40506        -1.58910
   H       -7.62537         0.60195         1.46418
   H       -6.37480         2.07154        -1.50756
   H       -6.15641         4.46780        -1.94339
   H       -6.23734         6.09504        -0.07359
   H       -6.13457         0.97205         3.29310
   H       -7.83390         1.39193         3.67474
   H       -6.53298         1.91045         4.75912
   H       -5.67057         5.95142         2.86176
   H       -7.85560         6.46502         3.91106
   H      -11.28124         4.44345         1.74808
   H      -11.06334         5.23083         0.16606
   H      -11.92048         6.08284         1.47537
   H      -10.66251         7.85351        -0.14731
   H       -6.97881         9.99494         0.29234
   H       -6.23401         8.43097         2.04439
   H      -10.30574        10.19629        -1.16367
   H       -7.37061        10.00989        -2.00303
   H       -9.61341        11.81658        -3.08504
   H       -8.74930        13.04386        -5.30881
   H       -6.83001        12.87038        -7.01943
   H       -4.75819        12.25837        -8.22226
   H       -2.72243        10.96231        -9.12933
   H       -1.25352         8.89959        -8.59523
   H        1.16122         3.90660        -6.53908
   H       -2.48397         1.14335        -1.19398
   H       -3.26768         3.09100        -1.95278
   H       -3.44042         5.14734        -3.52841
*
