# ORCA input file
# SCF done       -149.432821598987          0.000609640436
! CAM-B3LYP def2-SVP def2/J RIJCOSX Grid4 TightSCF
%maxcore 5000
%tddft
    Mode sTDDFT
    Ethresh 5.0
    maxcore 5000
end

%pal
  nprocs 6
  end
* xyz 0 1
   C       -5.14884         2.21359        -2.15648
   C       -6.00294         3.07158        -2.82015
   C       -5.64734         3.82814        -3.95190
   N       -5.41954         4.48738        -4.86535
   C       -7.34979         3.27439        -2.49147
   N       -8.47275         3.46165        -2.31914
   C       -3.80659         1.86207        -2.60381
   C       -3.28568         0.88130        -1.72742
   C       -2.03950         0.33110        -1.88723
   C       -1.26945         0.76429        -2.97382
   C       -1.79773         1.74514        -3.84394
   C       -3.05876         2.30600        -3.67800
   S       -0.67849         2.14178        -5.11408
   C        0.46564         0.99579        -4.46794
   C        0.03526         0.35025        -3.35846
  Br        2.12117         0.76026        -5.31913
   C       -4.26720         0.61446        -0.65036
   O       -4.05008        -0.03953         0.34732
   C       -5.44979         1.44484        -0.97807
   C       -6.57435         1.61238        -0.19379
   C       -7.01754         0.73770         0.81789
   C       -7.88543         1.12278         1.83096
   O       -8.06313         0.35890         2.95328
   C       -7.37997        -0.82240         3.00262
   C       -6.59946        -1.27160         1.89964
   C       -6.01494        -2.47263         2.12565
   S       -6.41423        -3.07274         3.69350
   C       -7.37622        -1.68896         4.04667
   O       -6.49440        -0.53653         0.76492
   C       -8.64336         2.33653         1.93888
   C       -9.28710         3.01407         0.96273
   C      -10.07609         4.17047         1.25764
   C      -10.93008         4.76847         0.40756
   C      -11.20506         4.28496        -0.97677
   C      -11.72654         5.98982         0.80912
   N      -11.56185         6.42539         2.16700
   C      -10.63518         7.33134         2.55047
   C      -10.27730         7.57097         3.83939
   C       -9.37922         8.58824         4.20927
   C       -8.97954         8.85450         5.49222
   C       -8.11439         9.88877         5.92163
   C       -7.90439         9.92548         7.26670
   C       -8.58073         8.91304         7.98279
   S       -9.50743         7.91357         6.88706
   C       -8.55426         8.68153         9.34560
   C       -7.88594         9.43069        10.33604
   C       -8.04895         8.94804        11.60074
   C       -8.84655         7.78357        11.68352
   S       -9.39980         7.33231        10.07779
   C       -9.15950         7.07259        12.81828
   C       -9.92148         5.89759        12.83668
   C      -10.21154         5.20333        13.97775
   C      -10.94965         3.99505        14.06305
   C      -11.46801         3.28615        13.02895
   C      -12.19099         2.06449        13.20267
   C      -12.69628         1.34925        12.19375
   H       -1.66875        -0.41333        -1.20022
   H       -3.41339         3.05615        -4.36460
   H        0.61248        -0.38719        -2.83116
   H       -7.15565         2.50777        -0.33677
   H       -5.37760        -3.02747         1.47076
   H       -7.87787        -1.59450         4.98688
   H       -8.81828         2.62963         2.96785
   H       -9.25311         2.68029        -0.06311
   H       -9.96129         4.56646         2.25878
   H      -10.27824         4.15505        -1.53218
   H      -11.84057         4.98395        -1.51392
   H      -11.70458         3.31735        -0.95001
   H      -12.78956         5.77830         0.63716
   H      -11.44744         6.81676         0.14650
   H      -11.92533         5.81301         2.88304
   H      -10.20503         7.91519         1.74794
   H      -10.70155         6.96794         4.63154
   H       -8.97475         9.21649         3.42614
   H       -7.67843        10.57777         5.21940
   H       -7.27853        10.64655         7.76111
   H       -7.30810        10.30473        10.09360
   H       -7.61468         9.39039        12.48020
   H       -8.77330         7.45040        13.75659
   H      -10.28209         5.53908        11.88193
   H       -9.84270         5.60566        14.91348
   H      -11.09828         3.60341        15.06262
   H      -11.33981         3.63026        12.01246
   H      -12.32021         1.72032        14.22157
   H      -12.58303         1.66499        11.16966
   H      -13.23432         0.43196        12.35787
*
