# ORCA input file
# SCF done       -182.073845361404          0.000414576040
! CAM-B3LYP def2-SVP def2/J RIJCOSX Grid4 TightSCF
%maxcore 5000
%tddft
    Mode sTDDFT
    Ethresh 5.0
    maxcore 5000
end

%pal
  nprocs 6
  end
* xyz 0 1
   C       -7.39667        -2.01546         1.20370
   C       -7.32694        -1.64910         2.52240
   C       -7.22294        -2.56234         3.59231
   N       -7.14477        -3.25720         4.50270
   C       -7.32253        -0.32018         2.99567
   N       -7.30405         0.73172         3.45656
   C       -7.32987        -3.37901         0.69557
   C       -7.30769        -3.33655        -0.71979
   C       -7.24460        -4.46896        -1.49484
   C       -7.20200        -5.70479        -0.84162
   C       -7.22828        -5.73845         0.57347
   C       -7.29145        -4.59327         1.35685
   S       -7.17189        -7.36794         1.17460
   C       -7.11367        -7.97292        -0.45979
   C       -7.13478        -7.00674        -1.40850
  Br       -7.02998        -9.82236        -0.75875
   C       -7.35716        -1.93266        -1.17595
   O       -7.33349        -1.55392        -2.32625
   C       -7.48798        -1.12038         0.06170
   C       -7.85788         0.18802         0.11077
   C       -7.87210         1.09123        -1.00581
   C       -6.82876         1.10345        -1.89534
   S       -6.93482         2.29947        -3.10307
   C       -8.47843         2.80077        -2.47793
   C       -8.86753         2.09045        -1.33297
   C      -10.14939         2.32526        -0.77901
   C      -10.52908         1.58727         0.47399
   C       -9.95345         2.28777         1.70985
   C      -11.01307         3.23749        -1.37566
   C      -12.45085         3.36619        -0.94003
   C      -12.66417         4.31225         0.24520
   C      -10.57176         4.01640        -2.47294
   C      -11.25625         5.03836        -3.23098
   C      -10.51642         5.46480        -4.29199
   S       -8.97257         4.72166        -4.43535
   C       -9.30429         3.76782        -3.02445
   C      -12.54352         5.63872        -2.92970
   C      -13.45964         5.93785        -3.86291
   C      -14.75462         6.52645        -3.60867
   C      -15.66607         6.65427        -4.65292
   C      -16.93912         7.17226        -4.46527
   N      -17.74629         7.25397        -5.64577
   O      -17.49061         6.47938        -6.55017
   O      -18.62808         8.09279        -5.70990
   C      -17.39236         7.55923        -3.17554
   C      -16.43502         7.46217        -2.14452
   C      -15.17046         6.97818        -2.34487
   C      -18.73103         7.97317        -2.92617
   C      -19.39965         8.08417        -1.73607
   C      -20.76307         8.47952        -1.63518
   C      -21.27082         8.47496        -0.37348
   C      -20.34300         8.07778         0.61356
   S      -18.79776         7.71364        -0.12699
   C      -20.52654         7.97241         1.97686
   C      -21.68752         8.22517         2.73791
   C      -21.52438         8.02996         4.07638
   C      -20.22826         7.60881         4.46271
   S      -19.22079         7.47300         3.03078
   C      -19.83919         7.37532         5.75972
   C      -18.61664         6.95991         6.29706
   S      -18.50327         6.90374         8.05474
   C      -16.85286         6.36636         8.08315
   C      -16.40180         6.22046         6.77309
   C      -17.38073         6.54996         5.78625
   N      -16.78676         6.33144         4.58975
   N      -15.52576         5.90139         4.73674
   C      -15.26795         5.82550         6.01626
   C      -16.20349         6.15696         9.33559
   C      -14.93087         5.78076         9.49029
   H       -7.22824        -4.40229        -2.57138
   H       -7.31400        -4.67123         2.43095
   H       -7.10484        -7.20195        -2.46488
   H       -8.14006         0.59474         1.07007
   H       -5.95099         0.48942        -1.85041
   H      -10.15253         0.56285         0.41289
   H      -11.61014         1.52563         0.58378
   H       -8.88278         2.45253         1.61658
   H      -10.13488         1.69386         2.60296
   H      -10.41695         3.26112         1.84409
   H      -12.84745         2.38176        -0.68537
   H      -13.02924         3.72103        -1.79420
   H      -12.36654         3.84401         1.17827
   H      -13.71628         4.57765         0.32607
   H      -12.07997         5.22257         0.12745
   H      -10.78607         6.23310        -4.99019
   H      -12.72654         5.87336        -1.89327
   H      -13.26378         5.67467        -4.89427
   H      -15.38770         6.34987        -5.65187
   H      -16.70046         7.81113        -1.16043
   H      -14.48744         6.95039        -1.51059
   H      -19.33404         8.20132        -3.79385
   H      -21.32188         8.75217        -2.51274
   H      -22.28244         8.74289        -0.12637
   H      -22.60631         8.54335         2.27956
   H      -22.29994         8.17614         4.80749
   H      -20.60896         7.55946         6.50027
   H      -17.16351         6.45591         3.66517
   H      -14.30647         5.49493         6.35104
   H      -16.82313         6.33197        10.20567
   H      -14.28295         5.60367         8.65134
   H      -14.50740         5.64425        10.46905
*
