# ORCA input file
# SCF done       -177.136807426207          0.000870318606
! CAM-B3LYP def2-SVP def2/J RIJCOSX Grid4 TightSCF
%maxcore 5000
%tddft
    Mode sTDDFT
    Ethresh 5.0
    maxcore 5000
end

%pal
  nprocs 6
  end
* xyz 0 1
   C       -9.10468         3.20422         4.75237
   C       -8.35847         4.13004         5.44079
   C       -8.61858         4.52359         6.77000
   N       -8.76845         4.89727         7.84589
   C       -7.23139         4.83403         4.96854
   N       -6.30541         5.45536         4.68954
   C      -10.26352         2.50799         5.30473
   C      -10.76635         1.62390         4.32271
   C      -11.86105         0.82169         4.53151
   C      -12.49651         0.89799         5.77518
   C      -11.98892         1.78566         6.75218
   C      -10.87906         2.59446         6.53962
   S      -12.92498         1.72786         8.21582
   C      -13.97071         0.52832         7.50306
   C      -13.63840         0.18661         6.23598
  Br      -15.40505        -0.15743         8.49888
   C       -9.94444         1.72629         3.10025
   O      -10.12740         1.08217         2.08513
   C       -8.91122         2.73899         3.39100
   C       -7.92211         3.22069         2.56364
   C       -7.58348         2.93121         1.23683
   S       -6.23147         3.86385         0.57029
   C       -6.40820         3.06882        -0.92932
   C       -7.45166         2.12334        -0.92073
   C       -8.10463         2.04732         0.28797
   C       -7.57339         1.45096        -2.26794
   C       -7.31047        -0.05422        -2.16252
   C       -8.94485         1.71388        -2.89638
   C       -6.47229         2.15323        -3.02713
   C       -5.81828         3.08353        -2.20408
   S       -4.56019         3.91257        -3.02306
   C       -4.90859         3.01413        -4.49359
   C       -5.96207         2.11513        -4.30881
   C       -4.14833         3.27557        -5.64662
   C       -4.33093         2.66680        -6.85984
   C       -3.56942         2.95114        -7.99649
   C       -3.76422         2.34557        -9.21756
   C       -3.05057         2.57116       -10.41717
   C       -3.47500         1.82048       -11.47337
   C       -4.54956         0.95817       -11.16394
   S       -5.00402         1.13250        -9.48499
   C       -5.20884         0.07045       -11.99184
   C       -4.98253        -0.20480       -13.35861
   C       -5.81408        -1.14934       -13.87423
   C       -6.75360        -1.68604       -12.94851
   S       -6.52505        -0.91260       -11.38967
   C       -7.65291        -2.67268       -13.24545
   C       -8.61895        -3.30113       -12.40700
   C       -8.95121        -2.88923       -11.10686
   C       -9.87546        -3.57536       -10.35766
   F      -10.18430        -3.08494        -9.14509
   C      -10.53123        -4.72397       -10.82380
   C      -10.24127        -5.11775       -12.13630
   C       -9.32663        -4.42418       -12.88601
   F       -9.08187        -4.85807       -14.14052
   C      -11.46019        -5.46517       -10.01215
   S      -12.67107        -6.49959       -10.73829
   C      -13.32665        -7.00259        -9.23830
   C      -12.65107        -6.41537        -8.19916
   C      -11.59937        -5.54690        -8.64642
   O      -10.93674        -5.02719        -7.59280
   C      -11.55460        -5.52981        -6.49273
   N      -11.06189        -5.14422        -5.22031
   O      -11.64555        -5.60602        -4.25710
   O      -10.11185        -4.39564        -5.17524
   C      -12.59427        -6.37072        -6.77866
   H      -12.21652         0.15784         3.75909
   H      -10.53544         3.25282         7.31922
   H      -14.17484        -0.53585         5.64834
   H       -7.28144         3.97707         3.00083
   H       -8.92881         1.39672         0.51532
   H       -8.06794        -0.51791        -1.53639
   H       -6.33279        -0.23960        -1.72315
   H       -7.34357        -0.51046        -3.14848
   H       -9.72354         1.27829        -2.27605
   H       -8.99365         1.26809        -3.88649
   H       -9.12474         2.78326        -2.98360
   H       -6.32127         1.47324        -5.09163
   H       -3.36935         4.02102        -5.55286
   H       -5.10826         1.92225        -6.96627
   H       -2.78165         3.68938        -7.92464
   H       -2.24465         3.28240       -10.46271
   H       -3.04673         1.86321       -12.45869
   H       -4.21440         0.29711       -13.91919
   H       -5.78783        -1.48915       -14.89442
   H       -7.60404        -3.05269       -14.25801
   H       -8.50678        -2.01023       -10.67277
   H      -10.72910        -5.98121       -12.56147
   H      -14.14742        -7.68897        -9.21299
   H      -13.21245        -6.87687        -6.06675
*
