# ORCA input file
# SCF done       -169.963812158255          0.000611201471
! CAM-B3LYP def2-SVP def2/J RIJCOSX Grid4 TightSCF
%maxcore 5000
%tddft
    Mode sTDDFT
    Ethresh 5.0
    maxcore 5000
end

%pal
  nprocs 6
  end
* xyz 0 1
   C        0.67578        -0.42634         0.19175
   C        0.59756        -1.55312         0.96395
   C        1.69408        -2.10354         1.66201
   N        2.55206        -2.59311         2.24587
   C       -0.58793        -2.27063         1.24062
   N       -1.50836        -2.87588         1.56114
   C        1.84958         0.42353         0.04580
   C        1.46726         1.60897        -0.62691
   C        2.34983         2.62834        -0.89187
   C        3.67532         2.46859        -0.47707
   C        4.05109         1.27570         0.18735
   C        3.15832         0.24646         0.45714
   S        5.73533         1.28530         0.61215
   C        5.90910         2.87003        -0.09449
   C        4.76651         3.36757        -0.62449
  Br        7.58096         3.71829        -0.06660
   C        0.02884         1.55589        -0.96245
   O       -0.60647         2.44333        -1.48268
   C       -0.42068         0.19815        -0.53666
   C       -1.56985        -0.44311        -0.88660
   C       -2.67971         0.06238        -1.60196
   O       -2.85277         1.37227        -1.90462
   C       -3.75445        -0.64110        -2.12572
   C       -4.33479        -1.98151        -2.28827
   O       -3.98725        -3.05792        -1.89163
   N       -5.48346        -1.74245        -3.05095
   C       -5.69414        -0.41726        -3.41149
   O       -6.60516        -0.02022        -4.09463
   C       -4.57607         0.29523        -2.78881
   C       -3.97995         1.53835        -2.61983
   C       -4.33583         2.84732        -3.05612
   C       -5.49443         3.09492        -3.70023
   C       -5.94853         4.35506        -4.22246
   C       -5.22121         5.34765        -4.76158
   C       -3.73983         5.34058        -4.93606
   C       -5.93218         6.52753        -5.37619
   N       -6.11623         6.34126        -6.80969
   C       -6.28558         5.13219        -7.37098
   C       -6.78376         4.86958        -8.60397
   C       -6.88253         3.52857        -9.04971
   O       -6.35383         2.52934        -8.29434
   C       -7.49663         2.95718       -10.15098
   C       -8.24526         3.24418       -11.36755
   O       -8.60326         4.28286       -11.86309
   N       -8.49475         1.97689       -11.90632
   C       -7.99190         0.90727       -11.17399
   O       -8.10344        -0.25415       -11.47222
   C       -7.34106         1.55158       -10.02789
   C       -6.62715         1.32012        -8.87163
   C       -6.16124         0.12756        -8.26073
   C       -5.29287         0.14153        -7.22259
   C       -4.76526        -1.00621        -6.56128
   C       -3.64799        -0.93282        -5.75943
   C       -3.03101        -2.06542        -5.04278
   C       -3.56916        -3.36587        -5.10613
   C       -4.66869        -3.64850        -5.83849
   S       -5.57626        -2.52434        -6.78591
   N       -1.94744        -1.71240        -4.37304
   C       -1.77301        -0.38284        -4.61208
   C       -2.78671         0.13688        -5.43859
   S       -2.56385         1.81709        -5.74109
   C       -1.13087         1.80839        -4.75980
   C       -0.82520         0.59381        -4.23603
   H        2.02579         3.52322        -1.40026
   H        3.49313        -0.64403         0.96217
   H        4.69459         4.32932        -1.09865
   H       -1.67695        -1.49406        -0.64910
   H       -6.10857        -2.48592        -3.32845
   H       -3.63124         3.62289        -2.79988
   H       -6.18445         2.27159        -3.84233
   H       -7.02784         4.45492        -4.24755
   H       -3.25933         5.87802        -4.11809
   H       -3.47393         5.84124        -5.86525
   H       -3.35060         4.32649        -4.95568
   H       -5.33966         7.43650        -5.23271
   H       -6.90773         6.67243        -4.89140
   H       -6.47364         7.14019        -7.31386
   H       -5.95866         4.29840        -6.76630
   H       -7.15709         5.63417        -9.26523
   H       -9.00453         1.84944       -12.76875
   H       -6.51489        -0.79513        -8.69798
   H       -4.92365         1.09450        -6.86696
   H       -3.07708        -4.14340        -4.54220
   H       -5.08234        -4.64212        -5.89449
   H       -0.59808         2.72968        -4.63113
   H        0.03440         0.40416        -3.62030
*
