# ORCA input file
# SCF done       -178.777426748901          0.000656963831
! CAM-B3LYP def2-SVP def2/J RIJCOSX Grid4 TightSCF
%maxcore 5000
%tddft
    Mode sTDDFT
    Ethresh 5.0
    maxcore 5000
end

%pal
  nprocs 6
  end
* xyz 0 1
   C       -7.73992        -1.92744         1.59617
   C       -7.00880        -2.05932         2.74630
   C       -6.92669        -3.24896         3.49944
   N       -6.82160        -4.19188         4.14520
   C       -6.27863        -1.01319         3.34963
   N       -5.68660        -0.20062         3.90389
   C       -8.60218        -2.94005         1.00366
   C       -9.32103        -2.35890        -0.07056
   C      -10.22602        -3.06787        -0.82260
   C      -10.43269        -4.41296        -0.49934
   C       -9.70536        -4.98624         0.57169
   C       -8.78972        -4.27044         1.33186
   S      -10.10748        -6.66190         0.79325
   C      -11.23400        -6.57083        -0.53468
   C      -11.30598        -5.34977        -1.11625
  Br      -12.20700        -8.09602        -1.02813
   C       -8.92062        -0.94545        -0.23060
   O       -9.30626        -0.17323        -1.07950
   C       -7.87738        -0.71622         0.80653
   C       -7.07854         0.37987         0.84845
   C       -7.27284         1.57549         0.06981
   C       -6.21515         2.02737        -0.67582
   S       -6.59899         3.29773        -1.74870
   C       -8.22324         3.33256        -1.12729
   C       -8.46017         2.37473        -0.13172
   C       -9.70779         2.37997         0.53946
   C       -9.88103         1.52875         1.77062
   C       -8.95723         1.99746         2.89674
   C      -10.71856         3.23916         0.11810
   C      -12.09753         3.17281         0.72124
   C      -12.22384         4.03746         1.97858
   C      -10.47618         4.19354        -0.89988
   C      -11.32987         5.21250        -1.47529
   C      -10.68906         5.90408        -2.46360
   S       -9.06655         5.42676        -2.74852
   C       -9.21263         4.21921        -1.51175
   C      -12.66969         5.59669        -1.08201
   C      -13.57917         6.09175        -1.94252
   C      -14.87210         6.55745        -1.55667
   S      -15.87625         7.37669        -2.72047
   C      -17.14691         7.64544        -1.56786
   C      -16.81006         7.07551        -0.35231
   C      -15.52601         6.48315        -0.34138
   O      -15.03051         5.90481         0.77813
   O      -17.57265         7.05087         0.79128
   C      -18.70781         6.19795         0.73534
   C      -18.29281         8.42623        -1.88855
   S      -18.65104         8.88444        -3.53718
   C      -20.02844         9.82017        -3.05084
   C      -20.18819         9.75334        -1.66984
   C      -19.21231         8.96468        -1.02726
   N      -21.18042        10.40165        -0.88045
   O      -21.68397        11.43267        -1.27721
   O      -21.44498         9.87677         0.18436
   C      -20.81522        10.44973        -4.05538
   O      -21.97720        11.07660        -3.70985
   C      -22.46786        11.59109        -4.83840
   C      -23.54692        12.36142        -5.33219
   C      -24.67008        12.96547        -4.57697
   O      -25.60395        13.52073        -5.11394
   N      -24.54641        12.82911        -3.23931
   C      -23.29013        12.44673        -6.68169
   O      -22.15825        11.81008        -7.05342
   C      -21.64656        11.28331        -5.92437
   C      -20.56909        10.54074        -5.42160
   H      -10.75871        -2.59828        -1.63461
   H       -8.25407        -4.75098         2.13353
   H      -11.94675        -5.11787        -1.94725
   H       -6.15418         0.33302         1.41179
   H       -5.23168         1.59742        -0.70330
   H       -9.67684         0.48172         1.54737
   H      -10.90395         1.57793         2.13249
   H       -7.91007         1.85942         2.63903
   H       -9.15803         1.43209         3.80434
   H       -9.11918         3.05318         3.10256
   H      -12.35354         2.13943         0.95947
   H      -12.81840         3.50360        -0.02582
   H      -11.64569         3.62054         2.79913
   H      -13.26494         4.10160         2.28571
   H      -11.85554         5.04364         1.79269
   H      -11.08269         6.73081        -3.02184
   H      -12.92812         5.54809        -0.03833
   H      -13.36066         6.16012        -2.99935
   H      -15.68605         6.04421         1.47993
   H      -19.35925         6.44817        -0.10450
   H      -19.24259         6.35138         1.67015
   H      -18.40203         5.14999         0.65095
   H      -19.17684         8.85653         0.04109
   H      -23.73945        12.41334        -2.80387
   H      -25.25343        13.23569        -2.64994
   H      -23.85185        12.94349        -7.44762
   H      -19.72918        10.12839        -5.94073
*
