# ORCA input file
# SCF done       -194.184833451509          0.000352620041
! CAM-B3LYP def2-SVP def2/J RIJCOSX Grid4 TightSCF
%maxcore 5000
%tddft
    Mode sTDDFT
    Ethresh 5.0
    maxcore 5000
end

%pal
  nprocs 6
  end
* xyz 0 1
   C       -7.96878         8.66906         3.41939
   C       -9.09658         9.33760         2.99083
   C       -9.61394        10.50736         3.57807
   N      -10.11076        11.45341         4.00032
   C       -9.88651         8.95800         1.89542
   N      -10.57319         8.71139         1.00494
   C       -7.08205         9.12157         4.48272
   C       -5.99377         8.22124         4.57392
   C       -4.98092         8.37815         5.48607
   C       -5.04106         9.48223         6.34554
   C       -6.13140        10.37789         6.24394
   C       -7.15934        10.21614         5.32275
   S       -6.00971        11.66784         7.40187
   C       -4.51573        10.99614         7.99818
   C       -4.12635         9.86422         7.36413
  Br       -3.61167        11.85124         9.40125
   C       -6.16715         7.13304         3.58250
   O       -5.47007         6.14794         3.48627
   C       -7.41937         7.46002         2.85828
   C       -8.06849         6.69574         1.91180
   C       -7.55400         5.66071         1.11291
   C       -8.37942         4.84289         0.32762
   O       -7.86428         3.87154        -0.48422
   C       -6.51155         3.68618        -0.42815
   C       -5.67988         4.51686         0.37351
   C       -4.37009         4.17203         0.30668
   S       -4.13673         2.82613        -0.74444
   C       -5.81990         2.72641        -1.09299
   O       -6.19161         5.54638         1.09538
   C       -9.79467         4.90491         0.32481
   C      -10.56063         3.99617        -0.35192
   C      -11.97061         3.90518        -0.37021
   C      -12.87363         4.89941        -0.02229
   O      -14.21464         4.64654         0.14853
   C      -14.61475         3.35989        -0.08056
   C      -13.71272         2.37740        -0.57782
   C      -14.30823         1.17639        -0.78511
   S      -15.97892         1.22916        -0.36306
   C      -15.87381         2.88487         0.09281
   O      -12.39138         2.64900        -0.77204
   C      -12.55130         6.28118         0.05133
   C      -13.38415         7.21437         0.58349
   C      -13.20363         8.63051         0.45477
   C      -12.76362         9.27561        -0.68982
   O      -12.40831        10.60229        -0.68573
   C      -12.55845        11.25312         0.50249
   C      -13.13870        10.61726         1.63623
   C      -13.24046        11.44048         2.71007
   S      -12.62897        13.00669         2.35148
   C      -12.22924        12.54743         0.74019
   O      -13.50330         9.29999         1.60775
   C      -12.66159         8.69612        -1.98419
   C      -13.35625         7.60542        -2.41717
   C      -13.14538         6.95005        -3.63651
   C      -13.78077         5.79484        -4.02441
   C      -14.93359         5.12842        -3.47414
   C      -15.99285         5.71012        -2.81749
   C      -17.07265         4.99008        -2.27440
   N      -17.95417         4.44996        -1.77284
   C      -16.18114         7.10104        -2.67833
   N      -16.42375         8.21868        -2.57640
   C      -14.87216         3.73117        -3.89691
   C      -13.81097         3.58318        -4.82500
   C      -13.13575         4.88788        -5.00224
   O      -12.21321         5.14652        -5.74316
   C      -13.51088         2.38083        -5.41556
   C      -14.28891         1.26976        -5.06911
   C      -15.34913         1.42974        -4.14717
   C      -15.66038         2.64941        -3.55800
   S      -16.18261        -0.06699        -3.86055
   C      -15.10860        -0.87861        -4.96977
   C      -14.17504        -0.07160        -5.52733
  Br      -15.31958        -2.71602        -5.28211
   H       -4.16507         7.67430         5.53634
   H       -7.97288        10.92156         5.28630
   H       -3.23173         9.31960         7.60494
   H       -9.09946         6.94501         1.72827
   H       -3.54616         4.62772         0.81369
   H       -6.19898         1.98050        -1.75971
   H      -10.27214         5.65912         0.92391
   H      -10.06324         3.17243        -0.84600
   H      -13.86166         0.27511        -1.14932
   H      -16.73974         3.41174         0.43566
   H      -11.64968         6.59998        -0.44828
   H      -14.18493         6.90422         1.24185
   H      -13.63102        11.21480         3.68007
   H      -11.78522        13.24788         0.06433
   H      -12.05316         9.25606        -2.68227
   H      -14.06343         7.15822        -1.73637
   H      -12.32370         7.27246        -4.26514
   H      -12.70249         2.29789        -6.12496
   H      -16.48355         2.72301        -2.86733
   H      -13.43635        -0.40594        -6.23272
*
