# ORCA input file
# SCF done       -162.971872139643          0.000286341450
! CAM-B3LYP def2-SVP def2/J RIJCOSX Grid4 TightSCF
%maxcore 5000
%tddft
    Mode sTDDFT
    Ethresh 5.0
    maxcore 5000
end

%pal
  nprocs 6
  end
* xyz 0 1
   C        7.60947        -6.11164        -5.77109
   C        7.66607        -6.67566        -4.55767
   C        8.82259        -6.85450        -3.72592
   C        8.57186        -7.45746        -2.54407
   C        7.20551        -7.80581        -2.34059
   S        6.24571        -7.33152        -3.72628
   C        6.65520        -8.42322        -1.24385
   C        7.31483        -8.85292        -0.06406
   C        6.49046        -9.43349         0.84551
   C        5.13058        -9.49909         0.44144
   S        4.94127        -8.78880        -1.14721
   C        4.08682       -10.03049         1.15388
   C        2.76617       -10.05849         0.68190
   O        2.47234        -9.53633        -0.54579
   C        1.59060       -10.54419         1.23741
   C        1.01143       -11.20071         2.40493
   O        1.50686       -11.58877         3.43308
   N       -0.34486       -11.30661         2.08255
   C       -0.70196       -10.79284         0.83874
   O       -1.81715       -10.79108         0.37795
   C        0.56168       -10.29875         0.29768
   C        1.13931        -9.67342        -0.79397
   C        0.55900        -9.21423        -1.99426
   C        1.26295        -8.59627        -2.98286
   C        0.71328        -8.12334        -4.18711
   S        1.72052        -7.30235        -5.35981
   C        0.42251        -7.01808        -6.48746
   C       -0.75728        -7.55804        -5.97203
   C       -0.58510        -8.16656        -4.69362
   N       -1.80142        -8.64313        -4.33594
   N       -2.71987        -8.39057        -5.28130
   C       -2.13420        -7.75151        -6.25937
   C        0.68579        -6.32949        -7.69732
   C       -0.26805        -5.95942        -8.58319
   C       -0.07485        -5.26359        -9.82463
   C        0.98733        -5.28430       -10.64513
   C        2.22537        -6.09870       -10.43682
   C        0.97554        -4.45994       -11.91314
   N        2.03846        -3.48212       -11.91033
   C        1.89114        -2.20078       -11.57076
   C        2.93077        -1.32783       -11.41735
   C        2.71760         0.02116       -11.11366
   C        3.70981         0.95952       -10.94597
   C        3.53162         2.36073       -10.64710
   C        2.34725         3.02883       -10.44622
   C        2.25167         4.40524       -10.16088
   N        2.10155         5.51988        -9.92665
   C        1.06349         2.45110       -10.48978
   N       -0.01580         2.05559       -10.50726
   C        4.85738         2.97380       -10.58978
   C        5.82931         1.97533       -10.83798
   C        5.15091         0.68036       -11.06182
   O        5.70047        -0.38196       -11.28981
   C        7.17621         2.23928       -10.85582
   C        7.58705         3.55528       -10.61733
   C        6.60980         4.54607       -10.36854
   C        5.24618         4.27807       -10.34981
   S        7.33354         6.10408       -10.09880
   C        8.91711         5.41000       -10.32271
   C        8.90776         4.08208       -10.58500
  Br       10.43549         6.50476       -10.18984
   H        8.49754        -5.72460        -6.23867
   H        6.68457        -6.02452        -6.31096
   H        9.79079        -6.52087        -4.05456
   H        9.31909        -7.66999        -1.80039
   H        8.37248        -8.72061         0.07722
   H        6.80423        -9.82106         1.79843
   H        4.26312       -10.45555         2.12939
   H       -1.01623       -11.72657         2.70898
   H       -0.50303        -9.38407        -2.07076
   H        2.32532        -8.44670        -2.84297
   H       -2.07662        -9.13598        -3.50279
   H       -2.70045        -7.46286        -7.12093
   H        1.71795        -6.05736        -7.85669
   H       -1.29975        -6.15438        -8.32736
   H       -0.93834        -4.69107       -10.14362
   H        1.99803        -7.00487        -9.88030
   H        2.97559        -5.53801        -9.87765
   H        2.66021        -6.37830       -11.39565
   H        0.02462        -3.93495       -12.02082
   H        1.11291        -5.11480       -12.78202
   H        2.98250        -3.83607       -11.98142
   H        0.87070        -1.86027       -11.44513
   H        3.94580        -1.67501       -11.53621
   H        1.68803         0.33720       -11.00945
   H        7.89200         1.45556       -11.04904
   H        4.54237         5.06985       -10.15565
   H        9.79364         3.49631       -10.74997
*
