# ORCA input file
# SCF done       -157.207019316863          0.000264188927
! CAM-B3LYP def2-SVP def2/J RIJCOSX Grid4 TightSCF
%maxcore 5000
%tddft
    Mode sTDDFT
    Ethresh 5.0
    maxcore 5000
end

%pal
  nprocs 6
  end
* xyz 0 1
   C       -6.27915       -12.06578         2.07956
   C       -5.02480       -12.48594         1.87199
   C       -4.50779       -13.81760         2.01663
   C       -3.19313       -13.94368         1.73656
   C       -2.55488       -12.73236         1.34646
   S       -3.71637       -11.41055         1.35473
   C       -1.24229       -12.55260         1.00392
   C       -0.20249       -13.51875         0.95115
   C        0.99896       -13.02790         0.56756
   C        1.01656       -11.62759         0.28660
   S       -0.61451       -10.97847         0.54189
   C        2.13644       -10.95334        -0.07966
   N        2.30237        -9.64102        -0.41477
   C        3.55801        -9.06202        -0.45077
   C        4.70770        -9.55362         0.10155
   S        6.04513        -8.50238        -0.14063
   C        5.06989        -7.37682        -0.98798
   C        3.77090        -7.78973        -1.08295
   N        2.73471        -7.12968        -1.73631
   C        1.53776        -7.91604        -1.95187
   C        1.21325        -8.73797        -0.70468
   C        2.88193        -5.86934        -2.18767
   C        2.02833        -5.20570        -3.01153
   C        2.13866        -3.85880        -3.44074
   S        0.91668        -3.36546        -4.59960
   C        1.44960        -1.69366        -4.59936
   C        2.52459        -1.55443        -3.74929
   C        2.92267        -2.76718        -3.09781
   N        3.88077        -2.72855        -2.04578
   O        4.65388        -3.66310        -1.92596
   O        3.84012        -1.76838        -1.30599
   N        3.21579        -0.31523        -3.58147
   O        4.41902        -0.36300        -3.44307
   O        2.55665         0.70519        -3.64910
   N        0.92991        -0.76453        -5.44647
   C       -0.42925        -0.64565        -5.71362
   C       -1.43909        -1.44173        -5.26259
   S       -2.97532        -0.92207        -5.82534
   C       -2.27016         0.40067        -6.66257
   C       -0.90999         0.44055        -6.52529
   N       -0.05572         1.40390        -7.02650
   C        1.27663         1.41635        -6.46259
   C        1.77999        -0.01902        -6.36144
   C       -0.47247         2.32279        -7.94543
   C        0.18227         3.43993        -8.34346
   C       -0.33940         4.29176        -9.34280
   C        0.26751         5.42719        -9.79627
   C       -0.22320         6.31842       -10.78752
   C        0.59011         7.37181       -11.05128
   C        1.78573         7.38780       -10.28694
   S        1.82955         6.00230        -9.21143
   C        2.79900         8.31179       -10.33262
   C        2.87871         9.46792       -11.15776
   C        4.00333        10.19803       -10.99168
   C        4.91311         9.67466       -10.01317
   S        4.23216         8.19277        -9.32317
   C        6.09723        10.17950        -9.64123
   H       -7.04287       -12.75471         2.39443
   H       -6.56277       -11.03865         1.94151
   H       -5.15132       -14.62227         2.32586
   H       -2.64633       -14.86855         1.79396
   H       -0.38193       -14.54827         1.20343
   H        1.89360       -13.61840         0.47423
   H        3.05142       -11.52829        -0.12418
   H        4.84877       -10.45773         0.65596
   H        5.52031        -6.48210        -1.36644
   H        1.68165        -8.58722        -2.80797
   H        0.70046        -7.25069        -2.15864
   H        0.30434        -9.30898        -0.88372
   H        1.04349        -8.06422         0.14453
   H        3.77790        -5.37698        -1.84396
   H        1.17777        -5.71678        -3.44041
   H       -1.39057        -2.29522        -4.62028
   H       -2.91209         1.08012        -7.18255
   H        1.28000         1.86366        -5.46128
   H        1.93830         1.98628        -7.11348
   H        2.81352        -0.03118        -6.02342
   H        1.73531        -0.49367        -7.35241
   H       -1.42672         2.09182        -8.39591
   H        1.12410         3.73408        -7.90477
   H       -1.29310         4.03047        -9.78324
   H       -1.16878         6.14296       -11.27071
   H        0.37158         8.13958       -11.77186
   H        2.09230         9.71633       -11.84876
   H        4.23582        11.10138       -11.52763
   H        6.47288        11.08313       -10.08790
   H        6.70462         9.70499        -8.89280
*
