# ORCA input file
# SCF done       -176.191329363515          0.000533070573
! CAM-B3LYP def2-SVP def2/J RIJCOSX Grid4 TightSCF
%maxcore 5000
%tddft
    Mode sTDDFT
    Ethresh 5.0
    maxcore 5000
end

%pal
  nprocs 6
  end
* xyz 0 1
   C        6.00695         0.45106         0.10723
   C        5.31432         1.68742        -0.39580
   O        5.35418         2.10070        -1.53144
   C        4.55712         2.19229         0.75526
   C        4.87676         1.44327         1.88962
   C        5.91927         0.47874         1.56302
   C        6.76216        -0.09932         2.46621
   C        7.89455        -0.86029         2.11961
   N        8.83941        -1.46618         1.87689
   C        6.65499         0.05581         3.86642
   N        6.63225         0.14254         5.01004
   C        4.22960         1.68489         3.10867
   C        3.29381         2.68350         3.17032
   C        2.96768         3.47896         2.04904
   C        3.60615         3.23254         0.79913
   C        3.26906         4.02063        -0.31950
   C        2.33956         5.01766        -0.20282
   C        1.70982         5.26708         1.02680
   C        2.01513         4.51488         2.12804
   C        6.33803        -0.48876        -0.78955
   C        6.64847        -1.91071        -0.54901
   S        7.12030        -2.89115        -2.05432
   C        5.63137        -3.58284        -1.49307
   C        5.40474        -2.78066        -0.42871
   C        4.34186        -2.64322         0.54142
   O        4.36939        -1.79705         1.41726
   C        3.19724        -3.63419         0.40165
   C        3.66081        -4.99397         0.81679
   C        3.59670        -6.07766         0.03776
   C        4.00383        -7.39979         0.41215
   N        3.81002        -8.45870        -0.45080
   C        4.25083        -9.59575         0.15161
   C        4.39117       -10.97462        -0.00095
   C        4.96919       -11.43506         1.18191
   N        5.18591       -10.37051         2.03467
   C        4.74696        -9.23864         1.42584
   C        4.59145        -7.85951         1.58695
   C        5.28120       -12.78821         1.49536
   C        5.89285       -13.23223         2.60736
   C        6.17143       -14.65159         2.85336
   S        5.37958       -15.33263         4.44506
   C        7.08991       -15.51662         4.63771
   C        7.51149       -15.00977         3.45494
   C        8.84641       -14.82657         2.93705
   O        9.84823       -15.07981         3.57020
   C        8.91694       -14.30572         1.48827
   C        9.12256       -15.48678         0.61481
   C        8.12221       -16.20002         0.06719
   C        8.36914       -17.33201        -0.75478
   C        7.49818       -18.17023        -1.37404
   C        8.04647       -19.43259        -1.95410
   O        9.21873       -19.66515        -2.15360
   C        6.88304       -20.30536        -2.17500
   C        5.71807       -19.60325        -1.86713
   C        6.05595       -18.22473        -1.51071
   C        5.15522       -17.19290        -1.50471
   C        5.44091       -15.82097        -1.36113
   N        5.55528       -14.68092        -1.27325
   C        3.76878       -17.34298        -1.73474
   N        2.63335       -17.36790        -1.90238
   C        4.47008       -20.23763        -1.94008
   C        4.41691       -21.54789        -2.33780
   C        5.57636       -22.27719        -2.68047
   C        6.85272       -21.64916        -2.59516
   C        8.01049       -22.38129        -2.92857
   C        7.90617       -23.68298        -3.33484
   C        6.65075       -24.30597        -3.42281
   C        5.51115       -23.62052        -3.10232
   H        4.44781         1.08359         3.97550
   H        2.78073         2.87943         4.10088
   H        3.75861         3.82065        -1.25950
   H        2.08321         5.62233        -1.05987
   H        0.97926         6.05942         1.09628
   H        1.53147         4.70426         3.07541
   H        6.21826        -0.20267        -1.82968
   H        7.37796        -2.09221         0.23777
   H        5.11965        -4.42511        -1.91554
   H        2.84109        -3.64749        -0.62941
   H        2.39176        -3.29921         1.06067
   H        4.05821        -5.06491         1.81796
   H        3.17776        -5.98759        -0.95896
   H        3.38338        -8.38801        -1.35839
   H        4.12607       -11.58794        -0.83834
   H        5.57563       -10.44078         2.95756
   H        4.86242        -7.25988         2.43177
   H        5.00728       -13.49667         0.72414
   H        6.20425       -12.55956         3.39465
   H        5.85231       -15.28991         2.03053
   H        7.59992       -15.93990         5.48142
   H        9.77116       -13.63217         1.42022
   H        7.99433       -13.78302         1.23895
   H       10.14655       -15.80019         0.46055
   H        7.10204       -15.90179         0.24655
   H        9.41170       -17.61476        -0.86998
   H        3.56536       -19.71561        -1.67594
   H        3.46185       -22.04995        -2.39444
   H        8.96922       -21.89256        -2.85647
   H        8.79274       -24.24314        -3.59183
   H        6.59223       -25.33487        -3.74580
   H        4.54406       -24.09771        -3.16861
*
