# ORCA input file
# SCF done       -212.901567286253          0.000817391116
! CAM-B3LYP def2-SVP def2/J RIJCOSX Grid4 TightSCF
%maxcore 5000
%tddft
    Mode sTDDFT
    Ethresh 5.0
    maxcore 5000
end

%pal
  nprocs 6
  end
* xyz 0 1
   C       16.16762       -12.47870         1.88091
   C       15.90074       -13.72114         1.37705
   F       16.32747       -14.04090         0.14254
   C       15.19081       -14.68965         2.10059
   C       14.74695       -14.38323         3.35654
   C       14.99185       -13.11585         3.92491
   C       15.71809       -12.14512         3.17364
   C       15.98133       -10.86978         3.72400
   C       15.52664       -10.57457         4.98139
   C       14.78587       -11.54273         5.72170
   C       14.52704       -12.78558         5.21688
   C       14.36615       -10.96410         7.01051
   O       13.76583       -11.49602         7.91249
   C       14.77321        -9.52431         6.93300
   C       15.67439        -9.37770         5.79902
   C       16.62445        -8.40742         5.64782
   C       16.90878        -7.46066         6.65307
   N       17.19403        -6.73787         7.49780
   C       17.49981        -8.33290         4.54377
   N       18.22966        -8.23771         3.66380
   C       14.13840        -8.60409         7.67692
   C       14.09320        -7.14957         7.46726
   S       14.16604        -6.54514         5.68932
   C       13.03329        -5.39931         6.57224
   C       12.70722        -6.49468         7.55997
   N       12.07052        -5.74509         8.61187
   C       11.20366        -4.80327         7.85717
   C       11.66749        -4.77435         6.35552
   C       11.68354        -3.40879         5.76475
   C       11.20832        -3.13219         4.55122
   C       11.19582        -1.82986         3.90536
   C       11.25261        -0.65535         4.60893
   C       11.19369         0.58283         3.92853
   C       11.18636         1.88474         4.40236
   C       11.30829         2.29028         5.83635
   C       12.28968         3.44844         6.07855
   N       13.47008         3.34800         5.23369
   C        9.92971         2.64509         6.42311
   N        9.13234         1.43850         6.55269
   C       11.06531         2.74677         3.25050
   C       10.95124         4.08098         3.12816
   C       10.97025         4.75296         1.80198
   C       10.91916         3.82465         0.62748
   C       10.95330         2.48736         0.76492
   C       11.04003         1.89867         2.04914
   C       11.09148         0.58724         2.47460
   C       11.04519        -0.64197         1.77689
   C       11.08516        -1.80369         2.47546
   C       12.22595         5.59610         1.69955
   C       13.31301         5.35819         2.42204
   C       14.51497         6.20551         2.40674
   S       14.68082         7.25560         3.97498
   C       16.39811         6.79142         3.52335
   C       15.84699         5.57100         2.80596
   N       16.97763         5.04096         2.07513
   C       18.03166         5.15694         3.10217
   C       17.60025         6.19633         4.22947
   C       18.68872         7.15378         4.55939
   C       19.11062         7.44986         5.78988
   C       18.55296         6.93681         7.02052
   C       17.27171         6.97523         7.44127
   C       16.83016         6.09732         8.56885
   O       17.54668         5.47293         9.31557
   C       15.35663         6.11177         8.51732
   C       14.46288         5.37266         9.24000
   C       13.08126         5.52496         8.98901
   C       12.65114         6.43765         7.98125
   C       11.27279         6.56335         7.71737
   C       10.38092         5.81557         8.43315
   C       10.78257         4.92087         9.43505
   C       12.11587         4.78433         9.70339
   F        9.06465         5.92630         8.17417
   C       13.59612         7.19919         7.25823
   C       14.92950         7.04461         7.52937
   C       16.10250         7.69465         6.95621
   C       16.09281         8.89034         6.29541
   C       17.24414         9.59458         5.88869
   N       18.13039        10.24563         5.56011
   C       14.91883         9.63833         6.04872
   N       14.00768        10.30949         5.86023
   H       16.71957       -11.75903         1.29686
   H       15.01047       -15.65312         1.65086
   H       14.19800       -15.11250         3.93305
   H       16.52528       -10.14902         3.13418
   H       13.97060       -13.50744         5.79588
   H       13.48000        -8.98141         8.45342
   H       14.86071        -6.61045         8.02970
   H       13.69133        -4.65774         7.03264
   H       12.01222        -7.21402         7.08338
   H       11.53182        -6.31008         9.25878
   H       11.32136        -3.81238         8.30288
   H       10.14746        -5.08147         7.91282
   H       11.03798        -5.43564         5.75346
   H       12.14369        -2.64125         6.37065
   H       10.80339        -3.94307         3.95653
   H       11.29389        -0.66628         5.68748
   H       11.67067         1.41932         6.39239
   H       12.53488         3.45633         7.15475
   H       11.81315         4.40698         5.85537
   H       13.88399         2.42515         5.32231
   H       14.15905         4.02940         5.53753
   H        9.46099         3.41944         5.79286
   H       10.06327         3.06097         7.42702
   H        9.03301         0.99396         5.64496
   H        8.20360         1.66406         6.89201
   H       10.90564         4.73823         3.98338
   H       10.11781         5.44588         1.74051
   H       10.87430         4.28981        -0.34556
   H       10.91788         1.84444        -0.10305
   H       10.96531        -0.64188         0.69955
   H       11.04186        -2.75128         1.95745
   H       12.19843         6.39911         0.97511
   H       13.32752         4.55094         3.14391
   H       14.56767         6.88424         1.55437
   H       16.72941         7.56194         2.81834
   H       15.59868         4.80883         3.55736
   H       17.19282         5.62785         1.27313
   H       18.97741         5.44755         2.64630
   H       18.15915         4.17391         3.55930
   H       17.28689         5.65158         5.12363
   H       19.19936         7.59252         3.71298
   H       19.99142         8.06809         5.91010
   H       19.24746         6.41988         7.67796
   H       14.80664         4.67634         9.99044
   H       10.93031         7.24916         6.95851
   H       10.03299         4.36076         9.97151
   H       12.44907         4.09943        10.46845
   H       13.25115         7.87099         6.48912
*
