# ORCA input file
# SCF done       -235.380237130796          0.000671657992
! CAM-B3LYP def2-SVP def2/J RIJCOSX Grid4 TightSCF
%maxcore 5000
%tddft
    Mode sTDDFT
    Ethresh 5.0
    maxcore 5000
end

%pal
  nprocs 6
  end
* xyz 0 1
   C        9.11619        -2.90660        15.83910
   C        9.36700        -2.85343        17.18214
   F        8.46985        -3.36694        18.04470
   C       10.53251        -2.27998        17.70709
   C       11.45412        -1.75109        16.84641
   C       11.24546        -1.77745        15.45268
   C       10.05594        -2.36957        14.93834
   C        9.82969        -2.42011        13.54197
   C       10.76123        -1.89125        12.69149
   C       11.93559        -1.27850        13.21377
   C       12.18555        -1.22432        14.55384
   C       12.73648        -0.74691        12.09650
   O       13.81759        -0.20353        12.14775
   C       11.91699        -0.97722        10.87432
   C       10.81066        -1.82211        11.23041
   C       10.05241        -2.60676        10.39157
   C        9.03465        -3.47604        10.83476
   N        8.19174        -4.19698        11.13077
   C       10.23495        -2.71410         9.00290
   N       10.32731        -2.83915         7.86367
   C       12.33058        -0.37236         9.71583
   C       11.66817        -0.10304         8.51201
   S       12.65301         0.23584         7.10725
   C       11.26341         0.40012         6.09190
   C       10.09053         0.25516         6.82692
   C       10.30989         0.01254         8.19584
   S        9.08927         0.02374         9.45554
   C        7.66395         0.78260         8.59761
   C        7.07616        -0.29627         7.72088
   O        6.06004        -0.87816         7.98383
   C        7.93146        -0.64115         6.51414
   O        8.88625         0.34769         6.18667
   C       11.32966         0.64922         4.69709
   C       12.48487         0.84616         4.02292
   C       12.63086         1.11763         2.62146
   C       13.88407         1.42449         2.13382
   C       14.06120         1.74732         0.77542
   C       15.19350         2.12862         0.06818
   C       16.59110         2.16728         0.59057
   C       17.55905         1.33678        -0.29095
   N       17.14561        -0.02324        -0.55845
   C       17.09048         3.61526         0.73378
   N       16.35539         4.26492         1.80368
   C       14.76678         2.38276        -1.29084
   C       15.42443         2.83218        -2.37613
   C       14.78431         2.88719        -3.71696
   C       13.31171         2.60186        -3.71976
   C       12.64780         2.22779        -2.61249
   C       13.32616         2.09050        -1.37639
   C       12.90539         1.73442        -0.11375
   C       11.63569         1.38564         0.40720
   C       11.50820         1.09255         1.72353
   C       15.43647         1.88184        -4.64112
   C       16.09603         0.81006        -4.19093
   C       16.74371        -0.19812        -4.97389
   S       17.16636        -1.67289        -4.16913
   C       17.90415        -2.32866        -5.59678
   C       17.78471        -1.42982        -6.65730
   C       17.15134        -0.22113        -6.29640
   S       16.91271         1.11380        -7.42294
   C       18.63792         1.32968        -8.01359
   C       18.96509         0.28040        -9.04227
   O       18.96386         0.51014       -10.22111
   C       19.29410        -1.10926        -8.49102
   O       18.18977        -1.77988        -7.90976
   C       18.51057        -3.60393        -5.71229
   C       18.74931        -4.52986        -4.74584
   C       18.55626        -4.36693        -3.35420
   C       18.59314        -5.35067        -2.41095
   C       18.80955        -5.01287        -0.97868
   O       18.71583        -3.92026        -0.46753
   C       19.21344        -6.28170        -0.34054
   C       19.63355        -6.50423         0.93892
   C       20.00887        -7.81036         1.32515
   C       19.94723        -8.86565         0.36907
   C       20.33342       -10.16312         0.75728
   C       20.75317       -10.38296         2.03970
   C       20.81683        -9.35988         2.99546
   C       20.44805        -8.09395         2.63463
   F       21.12260       -11.62150         2.41237
   C       19.49853        -8.60851        -0.94756
   C       19.13014        -7.33717        -1.29459
   C       18.60090        -6.79048        -2.54179
   C       18.02520        -7.51900        -3.55002
   C       17.24968        -6.95173        -4.58359
   N       16.56246        -6.54523        -5.40791
   C       18.04229        -8.92758        -3.60590
   N       18.05085       -10.07073        -3.70964
   H        8.20929        -3.35978        15.47033
   H       10.67686        -2.26790        18.77580
   H       12.35990        -1.30306        17.22662
   H        8.91715        -2.86894        13.18382
   H       13.08855        -0.76358        14.92552
   H       13.35277        -0.00430         9.76181
   H        8.00325         1.65013         8.03437
   H        6.96670         1.07016         9.38284
   H        7.28255        -0.74935         5.64018
   H        8.41512        -1.61240         6.70087
   H       10.36795         0.68550         4.20654
   H       13.40665         0.82247         4.59366
   H       14.73020         1.45069         2.80536
   H       16.58955         1.73374         1.59581
   H       18.53627         1.30151         0.19605
   H       17.68960         1.83371        -1.25593
   H       17.22497        -0.60147         0.26992
   H       16.17482        -0.04904        -0.85530
   H       17.00085         4.13070        -0.23744
   H       18.14745         3.60578         1.01589
   H       15.36567         4.29408         1.57968
   H       16.67738         5.21684         1.93598
   H       16.46353         3.12720        -2.34485
   H       14.95399         3.88247        -4.15309
   H       12.81434         2.68914        -4.67312
   H       11.58700         2.02650        -2.64936
   H       10.78054         1.36230        -0.25229
   H       10.54109         0.82625         2.11899
   H       15.29409         2.05160        -5.69696
   H       16.16522         0.63351        -3.12545
   H       19.29264         1.29001        -7.14420
   H       18.65650         2.31860        -8.47026
   H       20.12186        -1.02711        -7.77149
   H       19.59709        -1.74402        -9.32772
   H       18.78221        -3.85412        -6.73029
   H       19.17050        -5.47154        -5.07240
   H       18.47376        -3.35979        -2.95985
   H       19.68081        -5.69246         1.64918
   H       20.29319       -10.97565         0.04880
   H       21.15460        -9.59338         3.99268
   H       20.48858        -7.28945         3.35334
   H       19.46589        -9.42455        -1.65203
*
