# ORCA input file
# SCF done       -207.841526794626          0.000818005310
! CAM-B3LYP def2-SVP def2/J RIJCOSX Grid4 TightSCF
%maxcore 5000
%tddft
    Mode sTDDFT
    Ethresh 5.0
    maxcore 5000
end

%pal
  nprocs 6
  end
* xyz 0 1
   C       24.02760        -1.74754         0.63519
   C       25.34376        -1.39686         0.51914
   F       26.24694        -2.32730         0.16173
   C       25.79868        -0.09283         0.75965
   C       24.89496         0.86605         1.12325
   C       23.52464         0.56009         1.25590
   C       23.08215        -0.77283         1.00969
   C       21.71374        -1.10546         1.13935
   C       20.81800        -0.13508         1.49980
   C       21.26390         1.19875         1.72384
   C       22.57995         1.54645         1.61491
   C       20.10389         2.05294         2.03077
   O       20.09518         3.22146         2.33367
   C       18.90539         1.17968         1.82211
   C       19.37161        -0.18886         1.70528
   C       18.66254        -1.33112         1.95870
   C       17.29552        -1.37653         2.29092
   N       16.18303        -1.49684         2.54834
   C       19.24350        -2.61806         1.99876
   N       19.67471        -3.68108         2.02751
   C       17.69159         1.77804         1.70992
   C       16.47055         1.27094         1.19875
   C       16.26606         0.16654         0.25215
   N       15.02243        -0.04501        -0.06518
   C       14.30205         0.86936         0.63948
   C       15.19594         1.75588         1.40501
   C       14.43143         2.75651         2.10441
   S       14.98173         3.92638         3.11324
   C       13.06074         2.47103         1.74172
   C       13.01267         1.26556         0.87953
   N       11.72841         0.95373         0.56590
   C       10.99616         1.86023         1.14702
   C       11.75974         2.86216         1.89626
   C       11.11498         3.97444         2.57017
   C       11.34302         5.29792         2.31078
   C       12.28514         5.93631         1.35185
   F       12.85336         5.06757         0.50698
   F       11.65887         6.85030         0.58199
   F       13.28482         6.59792         1.95651
   S       10.25877         6.34958         3.17021
   C        9.46578         4.98273         3.87966
   O        8.45262         5.09296         4.73178
   C        8.02119         6.39589         5.06509
   C       10.03022         3.78026         3.49238
   C        9.61652         2.50747         4.01723
   C       10.48301         1.47596         4.09532
   C       10.27544         0.14729         4.53969
   C        9.08996        -0.59077         4.99258
   N        9.32701        -1.82270         5.34227
   C       10.66969        -2.01498         5.16127
   C       11.27981        -0.78861         4.63140
   C       12.69219        -0.94443         4.46503
   S       13.73595         0.16393         3.83696
   C       12.94608        -2.27712         4.94975
   C       11.67916        -2.92763         5.34081
   N       11.92144        -4.19176         5.79027
   C       13.21289        -4.33458         5.77542
   C       13.94715        -3.15591         5.28785
   C       15.34654        -2.94974         5.15104
   C       16.36072        -3.55240         5.81687
   C       17.76027        -3.45865         5.30770
   O       18.20896        -2.61137         4.56989
   C       18.45473        -4.61364         5.89954
   C       19.69673        -5.10611         5.61675
   C       20.15975        -6.24183         6.31726
   C       19.32392        -6.84820         7.30158
   C       19.79642        -7.97755         7.99766
   C       21.04234        -8.46631         7.71707
   C       21.87753        -7.88645         6.75176
   C       21.43467        -6.79004         6.06595
   F       21.49581        -9.54220         8.38261
   C       18.03996        -6.31925         7.57100
   C       17.61259        -5.21793         6.88024
   C       16.37073        -4.45583         6.95296
   C       15.49653        -4.42318         8.00473
   C       14.47655        -3.45318         8.12117
   N       13.68581        -2.63704         8.27987
   C       15.59154        -5.27599         9.12410
   N       15.62996        -5.96552        10.04012
   H       23.71414        -2.76199         0.44380
   H       26.84931         0.12497         0.65142
   H       25.22061         1.87771         1.31282
   H       21.40595        -2.11866         0.93469
   H       22.89481         2.56351         1.79411
   H       17.67037         2.82341         2.00924
   H       17.04991        -0.40232        -0.21775
   H        9.92561         1.85928         1.04060
   H        7.19272         6.27175         5.75875
   H        7.68558         6.93576         4.17452
   H        8.82618         6.96163         5.54341
   H        8.60454         2.43756         4.38946
   H       11.51429         1.65775         3.82125
   H        8.08987        -0.19670         5.04288
   H       13.65745        -5.27655         6.04716
   H       15.63672        -2.24506         4.37422
   H       20.31116        -4.63922         4.86156
   H       19.18146        -8.44889         8.74834
   H       22.84949        -8.31784         6.57198
   H       22.05842        -6.32581         5.31725
   H       17.42043        -6.80489         8.30879
*
