# ORCA input file
# SCF done       -207.461717937631          0.000625025474
! CAM-B3LYP def2-SVP def2/J RIJCOSX Grid4 TightSCF
%maxcore 5000
%tddft
    Mode sTDDFT
    Ethresh 5.0
    maxcore 5000
end

%pal
  nprocs 6
  end
* xyz 0 1
   C        7.92900        -0.80800        11.71121
   C        7.29636        -1.14365        12.87549
   F        6.90440        -0.17193        13.72038
   C        7.03431        -2.47335        13.23225
   C        7.42401        -3.47412        12.38621
   C        8.07987        -3.18520        11.17205
   C        8.33993        -1.82639        10.82915
   C        9.00788        -1.51160         9.62301
   C        9.40018        -2.52357         8.78894
   C        9.11939        -3.87882         9.12714
   C        8.48197        -4.21109        10.28737
   C        9.60559        -4.76214         8.04785
   O        9.58108        -5.97084         8.01156
   C       10.08199        -3.84463         6.97661
   C       10.13020        -2.50396         7.52413
   C       10.92079        -1.47116         7.09037
   C       11.82940        -1.55376         6.01529
   N       12.63153        -1.55428         5.19364
   C       10.98623        -0.21546         7.72705
   N       11.06185         0.83110         8.19348
   C       10.31914        -4.31872         5.72624
   C       10.42735        -3.56746         4.51367
   C       11.27041        -4.02398         3.46969
   N       11.99988        -5.13633         3.46762
   S       12.84192        -5.19721         2.09978
   N       12.32836        -3.82313         1.44704
   C       11.46748        -3.23851         2.28108
   C       10.76711        -2.01930         2.08815
   C        9.87161        -1.66727         3.08852
   C        9.72407        -2.39595         4.26395
   C       11.02511        -1.15915         0.94584
   C       12.28712        -1.12105         0.40092
   C       12.59615        -0.19676        -0.61787
   C       13.78364         0.07974        -1.28590
   C       15.12164        -0.57654        -1.19395
   C       15.90243        -0.13018         0.06349
   N       15.24663        -0.56219         1.28134
   C       15.04170        -2.11039        -1.26104
   N       14.36288        -2.51287        -2.48404
   C       13.51185         1.20062        -2.15847
   C       14.32372         1.91839        -2.95575
   C       13.83317         3.11144        -3.70116
   C       12.36247         3.36352        -3.57462
   C       11.56178         2.63038        -2.77884
   C       12.09331         1.56021        -2.02154
   C       11.54856         0.70449        -1.08654
   C       10.24473         0.59753        -0.54882
   C        9.99674        -0.30023         0.43759
   C       14.20244         3.01619        -5.15767
   C       15.01111         3.89201        -5.75793
   C       15.38057         3.92019        -7.15339
   C       16.28520         4.92475        -7.58312
   N       16.90134         5.81923        -6.81085
   S       17.83889         6.74408        -7.72587
   N       17.51514         6.06432        -9.14925
   C       16.64057         5.07587        -8.96666
   C       16.09637         4.20581        -9.94748
   C       15.28009         3.18566        -9.47365
   C       14.91619         3.05939        -8.13507
   C       16.38924         4.31808       -11.34503
   C       16.74979         5.41085       -12.06302
   C       17.38868         5.22857       -13.39919
   O       17.41453         4.21367       -14.05603
   C       18.02058         6.52656       -13.70412
   C       18.83733         6.86192       -14.74539
   C       19.35835         8.17332       -14.81851
   C       19.02636         9.11445       -13.80043
   C       19.55766        10.41690       -13.87436
   C       20.37353        10.75087       -14.91910
   C       20.70892         9.84142       -15.93143
   C       20.20387         8.57227       -15.87407
   F       20.88127        11.99488       -14.99152
   C       18.17095         8.74184       -12.73770
   C       17.66941         7.46910       -12.69445
   C       16.75553         6.82583       -11.75710
   C       15.90232         7.47841       -10.90843
   C       14.85849         6.84410       -10.20575
   N       13.97731         6.38315        -9.63221
   C       15.93298         8.86784       -10.67575
   N       15.93130         9.98800       -10.42426
   H        8.11852         0.22650        11.47078
   H        6.53203        -2.67756        14.16449
   H        7.23306        -4.50617        12.63925
   H        9.18563        -0.47477         9.38498
   H        8.28744        -5.24526        10.52902
   H       10.40458        -5.39591         5.63034
   H        9.30510        -0.75410         2.98594
   H        9.02287        -2.04225         5.00693
   H       13.05808        -1.75497         0.80285
   H       15.70509        -0.25232        -2.06173
   H       16.04398         0.96346         0.00749
   H       16.88956        -0.59946         0.03022
   H       14.42026        -0.00254         1.46010
   H       15.86442        -0.46554         2.07813
   H       14.57259        -2.49392        -0.34726
   H       16.06089        -2.50579        -1.30580
   H       13.40303        -2.18161        -2.46474
   H       14.33632        -3.52473        -2.54738
   H       15.37188         1.68062        -3.07641
   H       14.36407         3.98397        -3.28698
   H       11.97708         4.18494        -4.15880
   H       10.50822         2.85661        -2.70024
   H        9.46077         1.23794        -0.92600
   H        8.99992        -0.39483         0.84138
   H       13.74184         2.19807        -5.69124
   H       15.45452         4.69217        -5.17854
   H       14.86596         2.49070       -10.18967
   H       14.23578         2.26771        -7.86357
   H       16.37332         3.38764       -11.90540
   H       19.08466         6.13554       -15.50506
   H       19.31754        11.14419       -13.11460
   H       21.35692        10.16210       -16.73162
   H       20.44840         7.85402       -16.64213
   H       17.94113         9.47049       -11.97652
*
