# ORCA input file
# SCF done       -221.030684235212          0.000295377937
! CAM-B3LYP def2-SVP def2/J RIJCOSX Grid4 TightSCF
%maxcore 5000
%tddft
    Mode sTDDFT
    Ethresh 5.0
    maxcore 5000
end

%pal
  nprocs 6
  end
* xyz 0 1
   C        1.12448         8.33462         9.33387
   C       -0.18306         8.67625         9.12845
   F       -0.90505         9.17708        10.14797
   C       -0.81296         8.52652         7.88552
   C       -0.09554         8.02020         6.83778
   C        1.25678         7.65254         6.99288
   C        1.87862         7.81079         8.26585
   C        3.23212         7.44246         8.44778
   C        3.93734         6.93996         7.38858
   C        3.31541         6.79752         6.11408
   C        2.00862         7.13632         5.91360
   C        4.30002         6.27590         5.14459
   O        4.11942         5.98019         3.98497
   C        5.59100         6.25330         5.88129
   C        5.31031         6.45633         7.28600
   C        6.07899         6.00803         8.32819
   C        7.27111         5.27985         8.13792
   N        8.21453         4.63857         8.00814
   C        5.71568         6.13865         9.68257
   N        5.46573         6.23669        10.79871
   C        6.76365         6.15655         5.19931
   C        8.06248         6.54409         5.60718
   S        8.33737         7.78215         6.81456
   C       10.02663         7.70278         6.55196
   C       10.37993         6.77793         5.61303
   C        9.26090         6.12168         5.05595
   C        9.36378         5.08898         3.98422
   C       10.80406         4.62641         3.71243
   C       11.76081         5.82749         3.79865
   C       11.77303         6.44945         5.19121
   C       11.22634         3.48624         4.61977
   C       10.90322         3.45451         5.91140
   C       11.99360         2.39567         3.99462
   C       12.84188         2.61658         2.94160
   C       13.51985         1.54003         2.32641
   C       14.38080         1.51200         1.24111
   C       14.85872         2.69191         0.45980
   C       16.39120         2.80859         0.52745
   N       16.83913         4.08552        -0.01254
   C       14.34328         2.66414        -0.99059
   N       14.31879         4.01528        -1.52084
   C       14.70202         0.12428         1.00195
   C       15.41161        -0.48272         0.03270
   C       15.52431        -1.96715        -0.04740
   C       14.91976        -2.70275         1.10020
   C       14.19710        -2.08552         2.05483
   C       14.02944        -0.68197         2.03297
   C       13.30686         0.19101         2.82481
   C       12.43852        -0.00789         3.92063
   C       11.80751         1.05881         4.47634
   C       16.94549        -2.34760        -0.37501
   C       17.74452        -3.10644         0.37316
   C       19.08226        -3.46713        -0.00800
   S       19.81934        -2.81561        -1.44942
   C       21.24647        -3.73006        -1.17649
   C       21.17163        -4.49373        -0.05382
   C       19.93250        -4.34233         0.62322
   C       19.63184        -5.06773         1.89691
   C       20.55960        -6.27725         2.05158
   C       22.01455        -5.82715         1.86869
   C       22.24193        -5.43238         0.41207
   C       20.33418        -6.95922         3.37780
   C       20.02671        -8.25721         3.44213
   C       20.58545        -6.17803         4.56837
   C       20.05430        -6.29695         5.80562
   C       20.77187        -5.67438         6.95851
   O       21.63313        -4.82788         6.89738
   C       20.25104        -6.36267         8.15269
   C       20.67834        -6.27936         9.44656
   C       20.05616        -7.07919        10.43090
   C       18.99901        -7.95743        10.05113
   C       18.39558        -8.76430        11.03551
   C       18.83205        -8.68544        12.32869
   C       19.86576        -7.82496        12.72246
   C       20.46367        -7.03556        11.77974
   F       18.25834        -9.45757        13.26925
   C       18.56727        -8.01318         8.70588
   C       19.18015        -7.22252         7.77024
   C       18.94188        -7.06167         6.34065
   C       17.77615        -7.37130         5.69086
   C       17.49317        -6.99131         4.36491
   N       17.18155        -6.66489         3.30905
   C       16.69229        -8.03105         6.30467
   N       15.79093        -8.57840         6.75844
   H        1.57582         8.46023        10.30562
   H       -1.84744         8.81358         7.78299
   H       -0.55870         7.89566         5.87049
   H        3.68309         7.57805         9.41832
   H        1.55257         7.01335         4.94264
   H        6.67492         5.82177         4.16958
   H       10.67315         8.35040         7.11128
   H        8.95226         5.51960         3.06408
   H        8.74701         4.22475         4.23992
   H       10.83049         4.25187         2.68369
   H       11.43818         6.57651         3.07095
   H       12.77467         5.52106         3.53947
   H       12.39378         7.34761         5.20401
   H       12.20239         5.73787         5.90283
   H       10.29629         4.20722         6.38216
   H       11.23947         2.66316         6.55903
   H       13.00620         3.61142         2.55779
   H       14.43939         3.59663         0.91159
   H       16.85385         2.02033        -0.07131
   H       16.70135         2.65327         1.57527
   H       16.48435         4.84520         0.56052
   H       17.85250         4.13539         0.00254
   H       13.31673         2.28116        -0.99565
   H       14.96204         1.97258        -1.58550
   H       15.25882         4.39914        -1.46530
   H       14.03322         4.00730        -2.49432
   H       15.90796         0.07188        -0.75067
   H       14.93751        -2.25160        -0.94243
   H       15.04221        -3.77485         1.09806
   H       13.73730        -2.65470         2.84994
   H       12.26855        -1.00770         4.29309
   H       11.11239         0.90458         5.28723
   H       17.31814        -1.94382        -1.30832
   H       17.39978        -3.51121         1.31385
   H       22.06033        -3.65218        -1.86998
   H       18.59312        -5.40224         1.91725
   H       19.77275        -4.38754         2.74483
   H       20.32418        -6.99552         1.25951
   H       22.69749        -6.63303         2.14557
   H       22.22240        -4.96701         2.50753
   H       22.22301        -6.32882        -0.21671
   H       23.22441        -4.97083         0.29007
   H       19.90074        -8.84993         2.55289
   H       19.92629        -8.77740         4.38019
   H       21.37899        -5.44130         4.49339
   H       21.48554        -5.61473         9.71576
   H       17.59402        -9.43554        10.76975
   H       20.16682        -7.80489        13.75779
   H       21.26270        -6.36508        12.05820
   H       17.76999        -8.69093         8.44431
*
