# ORCA input file
# SCF done       -220.958466724213          0.000645849978
! CAM-B3LYP def2-SVP def2/J RIJCOSX Grid4 TightSCF
%maxcore 5000
%tddft
    Mode sTDDFT
    Ethresh 5.0
    maxcore 5000
end

%pal
  nprocs 6
  end
* xyz 0 1
   C       -4.54084         3.21494        -0.98324
   C       -3.53875         3.75837        -0.19481
   C       -2.94106         3.01651         0.81602
   C       -3.33470         1.71297         1.07283
   C       -4.34142         1.15791         0.29636
   C       -4.94272         1.90954        -0.74149
   C       -5.92297         1.08218        -1.42109
   C       -6.79589         1.47658        -2.39013
   C       -6.89436         2.80520        -2.86589
   N       -7.02869         3.86282        -3.28781
   C       -7.73085         0.64466        -3.05048
   N       -8.49512         0.03795        -3.65329
   C       -5.78611        -0.26990        -0.85902
   C       -4.96352        -0.15180         0.35129
   C       -4.88294        -1.03211         1.39138
   C       -5.64483        -2.20572         1.55632
   N       -6.23610        -3.16065         1.79712
   C       -4.04747        -0.84554         2.51850
   N       -3.38648        -0.77359         3.45254
   C       -6.19548        -1.38408        -1.48959
   C       -5.93806        -2.77163        -1.13711
   C       -7.01646        -3.63922        -0.91938
   C       -8.41098        -3.15418        -0.87652
   O       -8.77304        -2.01948        -0.97332
   S       -9.49294        -4.54437        -0.59911
   C       -8.13128        -5.72014        -0.47645
   O       -8.30006        -6.88810        -0.31798
   C       -6.85352        -4.98345        -0.62526
   C       -5.57899        -5.56249        -0.51372
   C       -4.49873        -4.69897        -0.73875
   C       -4.66747        -3.34984        -1.05074
   C       -3.40310        -2.60952        -1.25485
   O       -3.26896        -1.45790        -1.55353
   S       -2.02769        -3.70696        -0.95924
   C       -3.09168        -5.11537        -0.58587
   O       -2.66442        -6.17251        -0.24182
   C       -5.41292        -6.96715        -0.18975
   S       -4.76964        -8.06665        -1.35331
   C       -5.05348        -9.41715        -0.28946
   C       -5.57679        -8.99867         0.92381
   C       -5.77824        -7.60298         0.97327
   C       -6.26645        -6.90369         2.20031
   C       -7.09453        -7.86732         3.04266
   C       -6.25679        -9.11597         3.34726
   C       -7.01400        -9.98685         4.31939
   O       -7.44668       -11.07761         4.08627
   C       -5.93788        -9.88850         2.06610
   C       -4.72067       -10.70114        -0.80825
   C       -4.99989       -11.89668        -0.25157
   C       -4.59085       -13.16594        -0.79370
   C       -4.12017       -14.17699         0.07267
   C       -3.99808       -14.03399         1.53892
   O       -4.18260       -13.06224         2.20782
   S       -3.45993       -15.60241         2.24046
   C       -3.34907       -16.39454         0.64816
   O       -3.06519       -17.54302         0.47716
   C       -3.69716       -15.40929        -0.39512
   C       -3.68984       -15.74553        -1.75456
   C       -4.18507       -14.76347        -2.61903
   C       -4.64571       -13.52777        -2.15708
   C       -5.30717       -12.72212        -3.20250
   O       -5.91476       -11.70230        -3.10714
   S       -5.14338       -13.56965        -4.79373
   C       -4.28014       -14.95194        -4.08314
   O       -3.86672       -15.87043        -4.73183
   C       -3.13884       -17.02671        -2.16890
   C       -3.72111       -18.01352        -2.87270
   C       -2.98833       -19.16300        -3.42349
   C       -1.78866       -19.64656        -2.99411
   C       -1.01052       -19.11288        -1.93999
   N       -0.30322       -18.73253        -1.12082
   C       -1.15453       -20.78156        -3.55069
   N       -0.59291       -21.69696        -3.95288
   C       -3.79427       -19.67763        -4.51619
   C       -5.03323       -18.99424        -4.53968
   C       -5.97078       -19.27109        -5.52335
   C       -5.67065       -20.23529        -6.47236
   C       -4.46000       -20.91541        -6.44300
   C       -3.51104       -20.64428        -5.46988
   C       -5.08091       -18.07013        -3.42180
   C       -6.20278       -17.48389        -2.91237
   C       -7.48083       -17.57703        -3.51099
   N       -8.53913       -17.60009        -3.95139
   C       -6.27418       -16.77779        -1.69483
   N       -6.41619       -16.22119        -0.70100
   H       -4.98588         3.79974        -1.77131
   H       -3.21486         4.77166        -0.37606
   H       -2.15560         3.45828         1.40958
   H       -2.85240         1.14631         1.85213
   H       -6.78585        -1.27230        -2.39082
   H       -6.84789        -6.01776         1.94169
   H       -5.40040        -6.56083         2.77658
   H       -7.98911        -8.15643         2.48810
   H       -7.40294        -7.38096         3.96923
   H       -5.33228        -8.79578         3.84107
   H       -7.16663        -9.50550         5.30567
   H       -6.82630       -10.46911         1.79505
   H       -5.13119       -10.59745         2.26692
   H       -4.16918       -10.66985        -1.73923
   H       -5.48782       -11.95286         0.70640
   H       -2.10817       -17.16391        -1.86458
   H       -6.90905       -18.74281        -5.56591
   H       -6.38884       -20.45671        -7.24680
   H       -4.24915       -21.66216        -7.19305
   H       -2.57165       -21.17225        -5.46855
*
