# ORCA input file
# SCF done       -188.056845946236          0.000875350446
! CAM-B3LYP def2-SVP def2/J RIJCOSX Grid4 TightSCF
%maxcore 5000
%tddft
    Mode sTDDFT
    Ethresh 5.0
    maxcore 5000
end

%pal
  nprocs 6
  end
* xyz 0 1
   C        3.29406         2.50919         2.05329
   C        3.26131         2.53007         3.42143
   C        4.22836         1.91515         4.24673
   N        4.96858         1.42936         4.97675
   C        2.26033         3.13737         4.20927
   N        1.48468         3.60182         4.91710
   C        4.32397         1.87819         1.23859
   C        3.98731         2.03918        -0.13595
   C        4.77537         1.54627        -1.13622
   C        5.96201         0.85771        -0.80233
   C        6.30577         0.68893         0.57065
   C        5.47033         1.21010         1.58418
   C        7.48884        -0.00730         0.89333
   C        8.29432        -0.51220        -0.09069
   C        7.95587        -0.34348        -1.44199
   C        6.81523         0.32756        -1.79021
   C        2.72012         2.77386        -0.25218
   O        2.09068         2.98207        -1.26570
   C        2.32821         3.12000         1.14859
   C        1.21224         3.80893         1.48721
   C        0.34356         4.47844         0.57216
   C       -1.12428         4.46246         0.67594
   N       -1.73294         5.08299        -0.28846
   C       -0.74582         5.59151        -1.07888
   C        0.58283         5.26242        -0.52690
   C        1.61890         5.84798        -1.34874
   S        3.23666         5.86515        -1.05822
   C        0.90398         6.42291        -2.45409
   C       -0.54656         6.25209        -2.25898
   N       -1.23814         6.73638        -3.33329
   C       -0.34106         7.13684        -4.17802
   C        1.04791         6.96604        -3.71512
   C        2.20735         7.31781        -4.44277
   S        3.74882         7.49852        -3.66149
   C        4.52122         7.89752        -5.15379
   C        3.61477         7.86155        -6.22668
   C        2.29860         7.55371        -5.82452
   O        1.19769         7.44547        -6.58248
   C        1.29455         7.63265        -7.97923
   C        4.06914         8.12958        -7.52834
   N        4.50357         8.35312        -8.56749
   C        5.89348         8.22023        -5.25369
   C        6.71346         8.38552        -4.18255
   C        8.07985         8.73894        -4.27245
   C        8.92709         8.77302        -5.47245
   N       10.15283         9.14698        -5.25505
   C       10.23027         9.40480        -3.91651
   C        8.93759         9.14053        -3.26624
   C        9.00835         9.46300        -1.86830
   S        7.82590         9.35619        -0.73046
   C       10.36730         9.91715        -1.68283
   C       11.09904         9.87172        -2.96382
   N       12.37316        10.31919        -2.79870
   C       12.47037        10.67540        -1.55257
   C       11.23182        10.46961        -0.77484
   C       11.00599        10.80551         0.59245
   C       11.42858        11.96897         1.14671
   C       11.29531        12.42392         2.52078
   C       10.95122        11.65077         3.59586
   C       10.85253        12.13554         4.91760
   N       10.75822        12.47763         6.00868
   C       10.68788        10.26541         3.52781
   N       10.48427         9.13632         3.53894
   C       11.66120        13.83422         2.55209
   C       12.06591        14.23496         1.24436
   C       11.95205        13.09633         0.32482
   O       12.17921        13.08177        -0.86694
   C       12.47522        15.50991         0.97332
   C       12.49850        16.46148         2.01640
   C       12.08857        16.07186         3.32512
   C       11.66988        14.74513         3.57582
   C       12.11069        17.03226         4.35693
   C       12.51912        18.31494         4.11036
   C       12.92381        18.69673         2.82228
   C       12.91404        17.78978         1.79737
   H        4.49563         1.68369        -2.17023
   H        5.76034         1.06586         2.61272
   H        7.74576        -0.13410         1.93469
   H        9.19768        -1.04459         0.16640
   H        8.60347        -0.74828        -2.20531
   H        6.54912         0.46026        -2.82874
   H        0.90036         3.85139         2.52407
   H       -1.67752         3.97183         1.45770
   H       -0.62369         7.57710        -5.11633
   H        0.28624         7.48330        -8.36165
   H        1.96890         6.90312        -8.43445
   H        1.63338         8.64230        -8.22485
   H        6.26966         8.37572        -6.25648
   H        6.30902         8.27601        -3.18325
   H        8.61295         8.50786        -6.46667
   H       13.41013        11.00239        -1.14750
   H       10.40793        10.10702         1.16518
   H       12.77816        15.78719        -0.02549
   H       11.36115        14.48257         4.57531
   H       11.79932        16.73400         5.34714
   H       12.53267        19.04307         4.90730
   H       13.24288        19.71295         2.64612
   H       13.22396        18.07764         0.80354
*
