# ORCA input file
# SCF done       -231.969358056673          0.000752585682
! CAM-B3LYP def2-SVP def2/J RIJCOSX Grid4 TightSCF
%maxcore 5000
%tddft
    Mode sTDDFT
    Ethresh 5.0
    maxcore 5000
end

%pal
  nprocs 6
  end
* xyz 0 1
   C       -1.23669        13.63385         8.56620
   C       -0.73851        14.53628         7.65516
   C       -1.06770        15.90512         7.64417
   N       -1.30448        17.02701         7.57709
   C        0.23159        14.22252         6.68726
   N        1.05107        14.02711         5.90557
   C       -2.04512        13.98055         9.73189
   C       -1.98584        12.89917        10.65868
   C       -2.62899        12.95022        11.86042
   C       -3.38867        14.09756        12.18721
   C       -3.47098        15.17059        11.25419
   C       -2.78227        15.09564        10.02051
   C       -4.24517        16.30047        11.58487
   C       -4.90385        16.37198        12.78240
   C       -4.81908        15.31704        13.70242
   C       -4.07739        14.20409        13.41101
   C       -1.18390        11.80697        10.07469
   O       -0.87460        10.75218        10.58554
   C       -0.87737        12.24462         8.68852
   C       -0.38133        11.32883         7.79512
   C       -0.37303        11.36376         6.39514
   S        0.79172        10.40484         5.53374
   C        0.30434        11.00969         3.98911
   C       -0.78651        11.89378         4.12732
   C       -1.18698        12.06768         5.48299
   C       -2.33969        12.81283         5.76339
   C       -2.99997        13.45797         4.74188
   C       -4.15663        14.21353         5.03729
   N       -5.09078        14.81537         5.31764
   C       -2.54201        13.36918         3.39221
   O       -3.26001        14.08310         2.49751
   C       -2.86634        14.07073         1.14634
   C       -1.46521        12.56623         3.09713
   C        0.94715        10.62681         2.79429
   C        1.96167         9.72592         2.72862
   C        2.63605         9.27083         1.55066
   C        2.38761         9.78207         0.29172
   C        3.05066         9.26599        -0.83603
   C        2.96186         9.58025        -2.18739
   C        2.15111        10.64108        -2.85193
   C        0.64502        10.32412        -2.78566
   N        0.33913         9.21773        -3.67852
   C        2.44082        12.03826        -2.27522
   N        1.80438        13.05359        -3.09944
   C        3.81383         8.64876        -2.88547
   C        4.02375         8.45133        -4.20010
   C        4.88798         7.34668        -4.69460
   C        5.60410         6.58072        -3.61897
   C        5.38550         6.79506        -2.31058
   C        4.47053         7.79082        -1.88938
   C        3.99748         8.16899        -0.65324
   C        4.25948         7.68202         0.65036
   C        3.60550         8.21944         1.70647
   C        5.87382         7.76668        -5.74861
   C        6.22670         9.03400        -5.99171
   C        7.16373         9.47227        -6.98215
   S        7.94831        10.98796        -6.75814
   C        8.94633        10.80432        -8.17030
   C        8.61113         9.61747        -8.84593
   C        7.59366         8.86624        -8.17281
   C        7.08954         7.70491        -8.78313
   C        7.60551         7.28028        -9.98321
   C        7.09107         6.11222       -10.58964
   N        6.65005         5.16068       -11.05193
   C        8.63053         8.02179       -10.65286
   O        9.03072         7.50138       -11.83112
   C       10.02787         8.16938       -12.56794
   C        9.10032         9.18436       -10.09184
   C        9.87726        11.81697        -8.47000
   C       10.99773        11.68389        -9.24130
   C       11.84555        12.73906        -9.63034
   C       11.50426        14.05540        -9.82450
   C       12.43523        15.10410       -10.18458
   C       13.79483        15.08081        -9.99665
   C       14.65801        16.13435       -10.35792
   N       15.41142        16.95448       -10.63848
   C       14.50500        14.02365        -9.39215
   N       15.14526        13.21180        -8.89132
   C       11.66882        16.22652       -10.71212
   C       10.28562        15.90415       -10.61984
   C       10.12653        14.56708       -10.01897
   O        9.07037        14.00694        -9.79912
   C        9.31386        16.76487       -11.04034
   C        9.68918        18.01441       -11.58323
   C       11.07155        18.34313       -11.68338
   C       12.05573        17.42928       -11.23928
   C       11.43401        19.59049       -12.23035
   C       10.47867        20.47294       -12.65635
   C        9.11781        20.14854       -12.55618
   C        8.73158        18.94538       -12.03057
   H       -2.56472        12.12481        12.55386
   H       -2.86915        15.91723         9.32665
   H       -4.30551        17.11066        10.87315
   H       -5.49399        17.24260        13.02681
   H       -5.34519        15.38919        14.64273
   H       -4.00989        13.38762        14.11532
   H        0.03037        10.43377         8.25312
   H       -2.73634        12.86238         6.76526
   H       -3.55820        14.73769         0.63565
   H       -2.94531        13.06737         0.71554
   H       -1.84464        14.44355         1.02488
   H       -1.13525        12.44020         2.07950
   H        0.57495        11.08958         1.89204
   H        2.28990         9.28018         3.66044
   H        1.66875        10.57543         0.16454
   H        2.42444        10.66971        -3.91274
   H        0.09797        11.24895        -3.02622
   H        0.38045        10.01344        -1.77302
   H        0.42923         9.51384        -4.64513
   H       -0.61507         8.90488        -3.54137
   H        3.53397        12.16139        -2.19410
   H        2.02217        12.12581        -1.27169
   H        2.22468        13.07127        -4.02337
   H        1.93077        13.97182        -2.68838
   H        3.52860         9.04554        -4.95570
   H        4.20296         6.63165        -5.18731
   H        6.29708         5.82574        -3.95712
   H        5.90155         6.20785        -1.56497
   H        4.97333         6.88275         0.78483
   H        3.79119         7.85411         2.70604
   H        6.34579         6.95104        -6.27542
   H        5.81981         9.82142        -5.36931
   H        6.26960         7.16210        -8.34199
   H       10.19242         7.55996       -13.45434
   H       10.96021         8.24431       -11.99976
   H        9.70084         9.16916       -12.86941
   H        9.80872         9.79985       -10.61707
   H        9.70594        12.76231        -7.97592
   H       11.32463        10.69160        -9.52113
   H       12.85984        12.45124        -9.88219
   H        8.27076        16.49687       -10.95871
   H       13.09432        17.70372       -11.33497
   H       12.48317        19.83647       -12.30439
   H       10.76684        21.42656       -13.07271
   H        8.37701        20.85625       -12.89733
   H        7.68494        18.68958       -11.95088
*
