# ORCA input file
# SCF done       -189.865382916034          0.000721341861
! CAM-B3LYP def2-SVP def2/J RIJCOSX Grid4 TightSCF
%maxcore 5000
%tddft
    Mode sTDDFT
    Ethresh 5.0
    maxcore 5000
end

%pal
  nprocs 6
  end
* xyz 0 1
   C        3.54339        -3.59108        -1.30343
   O        3.07813        -4.64997        -0.96918
   C        4.94306        -3.14814        -1.11380
   C        5.14222        -1.89646        -1.72164
   C        6.39459        -1.30323        -1.67350
   C        7.42199        -1.96790        -1.01475
   C        7.21278        -3.21184        -0.41178
   C        5.96241        -3.81339        -0.46407
  Br        8.62810        -4.09077         0.47640
  Br        9.12858        -1.16017        -0.94779
   C        3.88697        -1.45172        -2.31874
   C        3.67514        -0.24099        -2.91871
   C        4.67380         0.74495        -3.08413
   N        5.44328         1.57888        -3.25180
   C        2.44058         0.20738        -3.43897
   N        1.47164         0.64588        -3.86971
   C        2.89729        -2.49397        -2.08781
   C        1.65021        -2.54504        -2.62184
   C        0.64118        -3.48889        -2.28770
   S       -0.65896        -3.86512        -3.42181
   C       -1.26904        -4.91980        -2.16263
   N       -0.53185        -4.88080        -1.07731
   N        0.49871        -4.10989        -1.15018
   C       -2.42415        -5.72502        -2.33261
   C       -2.87133        -6.54480        -1.34676
   C       -4.00203        -7.38215        -1.50928
   N       -4.49067        -8.21175        -0.53154
   C       -4.01829        -8.31127         0.82924
   C       -4.50613        -7.14270         1.68149
   C       -5.60825        -8.95022        -0.97385
   O       -6.20494        -9.75200        -0.28998
   C       -5.79128        -8.51648        -2.34380
   C       -4.79994        -7.56089        -2.64390
   C       -5.00222        -7.14257        -4.01458
   O       -4.41586        -6.34062        -4.71224
   N       -6.11702        -7.88381        -4.45483
   C       -6.58886        -7.72335        -5.80998
   C       -6.09424        -8.84206        -6.72389
   C       -6.59630        -8.71445        -3.46779
   C       -7.68456        -9.61539        -3.46920
   C       -8.53940        -9.95771        -4.47015
   C       -9.59441       -10.87918        -4.29725
   S       -9.92389       -11.66430        -2.78718
   C      -11.28433       -12.51821        -3.45628
   C      -11.43858       -12.21404        -4.80997
   C      -10.50730       -11.28299        -5.27468
   S      -10.39811       -10.62653        -6.89817
   C      -11.59665       -11.42964        -7.92119
   O      -11.60065       -11.12908        -9.08090
   C      -12.60845       -12.43834        -7.41145
   O      -13.39043       -12.91917        -8.18030
   S      -12.75132       -12.93773        -5.71589
   C      -12.03642       -13.46781        -2.73002
   C      -12.17431       -13.58734        -1.38178
   C      -12.58994       -14.89105        -0.79153
   O      -13.05469       -15.83857        -1.37532
   C      -12.24486       -14.77990         0.64336
   C      -11.79449       -13.47528         0.92224
   C      -11.89458       -12.67292        -0.29410
   C      -12.00036       -11.30863        -0.33808
   C      -12.39337       -10.60550        -1.49649
   N      -12.75355       -10.01479        -2.41219
   C      -11.83148       -10.47264         0.78565
   N      -11.69209        -9.75712         1.67105
   C      -11.38096       -13.14398         2.20059
   C      -11.43004       -14.12227         3.18755
   C      -11.89355       -15.41085         2.90804
   C      -12.30458       -15.74805         1.62430
  Br      -11.96190       -16.71606         4.27145
  Br      -10.85280       -13.68101         4.93057
   H        6.59627        -0.34867        -2.13169
   H        5.78671        -4.77480        -0.00685
   H        1.36362        -1.82548        -3.37765
   H       -2.93337        -5.67015        -3.28502
   H       -2.33508        -6.56320        -0.40932
   H       -2.92682        -8.36797         0.83450
   H       -4.42394        -9.24772         1.22187
   H       -4.13999        -6.19571         1.29146
   H       -4.15202        -7.26058         2.70144
   H       -5.59310        -7.11821         1.69247
   H       -6.17864        -6.77002        -6.15667
   H       -7.67890        -7.65154        -5.81080
   H       -5.00975        -8.80929        -6.79124
   H       -6.50713        -8.71153        -7.72015
   H       -6.38485        -9.82032        -6.34767
   H       -7.82507       -10.09199        -2.50479
   H       -8.46053        -9.54265        -5.46256
   H      -12.50486       -14.24977        -3.32159
   H      -11.01287       -12.16042         2.44541
   H      -12.66148       -16.74101         1.39890
*
