# ORCA input file
# SCF done       -185.346107365101          0.000972412705
! CAM-B3LYP def2-SVP def2/J RIJCOSX Grid4 TightSCF
%maxcore 5000
%tddft
    Mode sTDDFT
    Ethresh 5.0
    maxcore 5000
end

%pal
  nprocs 6
  end
* xyz 0 1
   C        0.55204        -3.51344         1.90435
   O        0.14700        -4.61900         2.18724
   C        1.58823        -2.77058         2.65202
   C        1.77318        -1.49890         2.08525
   C        2.71507        -0.64000         2.62972
   C        3.44934        -1.06566         3.73099
   C        3.25055        -2.32986         4.29179
   C        2.30993        -3.19454         3.74871
  Br        4.26094        -2.87801         5.79109
  Br        4.74000         0.10007         4.47076
   C        0.86076        -1.34981         0.95396
   C        0.73127        -0.21450         0.20036
   C        1.48003         0.96464         0.41606
   N        2.05463         1.94990         0.53765
   C       -0.15590        -0.02361        -0.88191
   N       -0.84322         0.22279        -1.76768
   C        0.13584        -2.60524         0.80244
   C       -0.75366        -2.86315        -0.20311
   C       -1.45442        -4.05429        -0.49272
   O       -1.29404        -5.19047         0.22072
   C       -2.06599        -6.15389        -0.29212
   C       -2.76430        -5.61841        -1.39171
   C       -2.36616        -4.28179        -1.51744
   N       -3.71973        -6.27332        -2.21300
   O       -4.08465        -7.38058        -1.88141
   O       -4.11034        -5.66599        -3.18762
   C       -2.03052        -7.44645         0.28691
   C       -1.33103        -7.63793         1.44068
   C       -1.17741        -8.88844         2.07988
   N       -0.58345        -9.03780         3.31148
   C       -0.12822        -7.97549         4.17674
   C       -1.29107        -7.26844         4.86743
   C       -0.51960       -10.38764         3.70767
   O       -0.04441       -10.76646         4.75566
   C       -1.11770       -11.10342         2.59873
   C       -1.51497       -10.16348         1.62418
   C       -2.06930       -10.90091         0.50815
   O       -2.53949       -10.54719        -0.54858
   N       -1.96464       -12.25965         0.89537
   C       -2.46285       -13.28484         0.00946
   C       -1.38168       -13.77539        -0.95162
   C       -1.38722       -12.39032         2.13229
   C       -1.07929       -13.55686         2.88712
   C       -1.03936       -14.84860         2.49031
   C       -0.69332       -15.94580         3.35111
   C       -0.67168       -15.89613         4.75747
   N       -0.34873       -16.92987         5.49451
   C       -0.07630       -18.08231         4.87853
   N       -0.07125       -18.24332         3.55112
   C       -0.35857       -17.19982         2.81172
   C        0.29040       -19.18506         5.73228
   C        0.46209       -20.48350         5.40439
   C        1.21868       -21.38235         6.33274
   O        1.46269       -21.18647         7.49580
   C        1.64963       -22.51598         5.48725
   C        1.08022       -22.39528         4.20484
   C        0.20274       -21.22810         4.18162
   C       -0.81685       -21.01799         3.30090
   C       -1.82756       -20.04556         3.47722
   N       -2.73505       -19.35410         3.59972
   C       -1.04335       -21.81938         2.16050
   N       -1.24870       -22.43032         1.21191
   C        1.37832       -23.33135         3.22829
   C        2.23264       -24.37933         3.55013
   C        2.78030       -24.50186         4.83071
   C        2.49024       -23.56202         5.81096
  Br        3.92673       -25.94519         5.24217
  Br        2.65494       -25.64830         2.21664
   H        2.89865         0.34289         2.22801
   H        2.14773        -4.17389         4.17147
   H       -0.96416        -2.07360        -0.91098
   H       -2.70850        -3.58285        -2.25337
   H       -2.56842        -8.24170        -0.21013
   H       -0.85756        -6.77899         1.89772
   H        0.46454        -7.26097         3.59949
   H        0.51243        -8.45132         4.92445
   H       -1.94547        -6.79628         4.13846
   H       -0.90823        -6.50373         5.53710
   H       -1.87087        -7.98097         5.44916
   H       -3.26657       -12.82253        -0.57179
   H       -2.88270       -14.10058         0.60142
   H       -1.07155       -12.95836        -1.59799
   H       -1.77500       -14.57654        -1.57115
   H       -0.50703       -14.13829        -0.41530
   H       -0.78924       -13.31240         3.90129
   H       -1.22944       -15.12629         1.46436
   H       -0.93281       -14.99735         5.29990
   H       -0.32609       -17.35689         1.73992
   H        0.52879       -18.90140         6.75088
   H        0.97728       -23.26302         2.22976
   H        2.90977       -23.64561         6.80156
*
