# ORCA input file
# SCF done       -227.520666895055          0.000247420567
! CAM-B3LYP def2-SVP def2/J RIJCOSX Grid4 TightSCF
%maxcore 5000
%tddft
    Mode sTDDFT
    Ethresh 5.0
    maxcore 5000
end

%pal
  nprocs 6
  end
* xyz 0 1
   C        1.58254        -1.67809         1.88536
   O        0.69259        -2.29924         2.41517
   C        2.23132        -0.45196         2.39305
   C        3.11190         0.06118         1.42374
   C        3.82228         1.22135         1.69026
   C        3.64463         1.84420         2.91979
   C        2.76808         1.32501         3.87689
   C        2.04831         0.16752         3.61224
  Br        2.55077         2.19091         5.54079
  Br        4.61475         3.42415         3.28384
   C        3.09704        -0.81119         0.25369
   C        3.87212        -0.66762        -0.86331
   C        4.77560         0.39915        -1.06690
   N        5.51714         1.24602        -1.28714
   C        3.89337        -1.56283        -1.95607
   N        3.98023        -2.24998        -2.87078
   C        2.16675        -1.89526         0.52964
   C        1.75230        -2.85657        -0.33194
   C        0.95257        -3.99724         0.02021
   C        1.12441        -4.75223         1.17356
   F        2.12498        -4.46981         2.01405
   C        0.34477        -5.87956         1.45654
   F        0.61576        -6.54497         2.59091
   C       -0.66793        -6.35807         0.62524
   C       -0.85366        -5.61805        -0.57689
   C       -0.04043        -4.46998        -0.87482
   N       -0.35976        -3.91872        -2.04376
   S       -1.55375        -4.76126        -2.70825
   N       -1.73237        -5.85291        -1.54791
   C       -1.40591        -7.52814         0.99265
   C       -2.33544        -8.11227         0.19608
   C       -3.09323        -9.29257         0.40554
   N       -3.18629       -10.12239         1.49645
   C       -2.62667        -9.95069         2.81671
   C       -3.32016        -8.83263         3.59028
   C       -4.03807       -11.22626         1.24259
   O       -4.28623       -12.08200         2.06044
   C       -4.47047       -11.03687        -0.12671
   C       -3.89342        -9.84418        -0.59973
   C       -4.31973        -9.65835        -1.97011
   O       -4.08821        -8.79316        -2.78465
   N       -5.15351       -10.77395        -2.23086
   C       -5.69543       -10.95613        -3.55701
   C       -4.95819       -12.04963        -4.32589
   C       -5.23468       -11.60966        -1.14412
   C       -5.90989       -12.84870        -0.98193
   C       -6.78598       -13.45395        -1.81734
   C       -7.39083       -14.72277        -1.53324
   C       -8.71581       -15.03309        -1.91216
   C       -9.56684       -14.10109        -2.67869
   O       -9.29084       -13.00857        -3.08172
   S      -11.16334       -14.85507        -2.96152
   C      -10.73332       -16.33800        -2.05218
   O      -11.51001       -17.23251        -1.89966
   C       -9.33387       -16.23578        -1.57693
   C       -8.68721       -17.25038        -0.83484
   C       -7.33104       -16.98365        -0.56046
   C       -6.71649       -15.78388        -0.90043
   C       -5.26068       -15.94175        -0.65424
   O       -4.34775       -15.21846        -0.90018
   O       -5.07939       -17.19768        -0.12724
   C       -6.26128       -17.87972        -0.03908
   O       -6.31249       -18.99907         0.36833
   C       -9.38268       -18.44581        -0.44051
   C       -9.13348       -19.14669         0.68673
   C       -9.89644       -20.29141         1.04217
   C       -9.86076       -20.95210         2.22741
   C      -10.43041       -22.32878         2.32580
   O      -11.17364       -22.86311         1.54150
   C       -9.83706       -22.89622         3.55502
   C       -9.08130       -21.90826         4.21501
   C       -9.20731       -20.64628         3.48716
   C       -8.94939       -19.40780         4.00610
   C       -9.30740       -18.18370         3.39832
   N       -9.60581       -17.15594         2.98450
   C       -8.37802       -19.20076         5.28234
   N       -7.90935       -18.98184         6.30571
   C       -8.39461       -22.22831         5.37431
   C       -8.48352       -23.52649         5.86389
   C       -9.25099       -24.49648         5.21233
   C       -9.93336       -24.18293         4.04396
  Br       -9.36488       -26.24802         5.90811
  Br       -7.53984       -23.96780         7.43900
   H        4.50356         1.65417         0.97579
   H        1.36724        -0.24340         4.34125
   H        1.98273        -2.78017        -1.38667
   H       -1.14653        -7.93817         1.95642
   H       -2.52887        -7.65817        -0.76811
   H       -1.54963        -9.78114         2.74581
   H       -2.79032       -10.90337         3.32969
   H       -3.24534        -7.88267         3.06629
   H       -2.86319        -8.72837         4.57023
   H       -4.37259        -9.07162         3.72234
   H       -5.55328        -9.99661        -4.06393
   H       -6.76802       -11.15549        -3.49918
   H       -3.91831       -11.76517        -4.46652
   H       -5.41614       -12.18343        -5.30185
   H       -4.98462       -12.99597        -3.79072
   H       -5.68825       -13.30828        -0.02737
   H       -7.13834       -12.96153        -2.70836
   H      -10.22968       -18.72936        -1.04997
   H       -8.33786       -18.84920         1.34948
   H      -10.52637       -20.73113         0.27612
   H       -7.78748       -21.50792         5.89854
   H      -10.52374       -24.92521         3.52947
*
