# ORCA input file
# SCF done       -224.069440137840          0.000514858151
! CAM-B3LYP def2-SVP def2/J RIJCOSX Grid4 TightSCF
%maxcore 5000
%tddft
    Mode sTDDFT
    Ethresh 5.0
    maxcore 5000
end

%pal
  nprocs 6
  end
* xyz 0 1
   C       -2.03133         0.23551        -0.16692
   C       -0.77829         0.67354        -0.50427
   C        0.16678        -0.09796        -1.21174
   N        0.97896        -0.67132        -1.78489
   C       -0.26607         1.92876        -0.13250
   N        0.18284         2.94698         0.15167
   C       -2.52077        -1.12741        -0.34579
   C       -3.65658        -1.32074         0.49385
   C       -4.30706        -2.51961         0.56075
   C       -3.84960        -3.59531        -0.23250
   C       -2.72786        -3.40271        -1.09046
   C       -2.06964        -2.15158        -1.13348
   C       -2.28888        -4.48185        -1.88403
   C       -2.92218        -5.69385        -1.83099
   C       -4.02445        -5.88290        -0.98404
   C       -4.47842        -4.85575        -0.20201
   C       -3.96150        -0.06425         1.19086
   O       -4.81008         0.14999         2.02444
   C       -3.01732         0.94927         0.61246
   C       -3.29942         2.25719         0.84836
   C       -2.85644         3.45769         0.24173
   S       -3.09010         4.94936         1.13450
   C       -2.31934         3.75946        -0.99567
   C       -1.97117         3.03995        -2.23188
   O       -2.07779         1.86874        -2.51083
   N       -1.47307         4.01118        -3.08487
   C       -1.00882         3.72139        -4.42504
   C       -2.15382         3.76724        -5.43057
   C       -1.51089         5.29344        -2.55520
   O       -1.14355         6.28359        -3.14342
   C       -2.07279         5.13334        -1.20585
   C       -2.42681         5.94270        -0.13839
   C       -2.37968         7.34529         0.05128
   C       -1.84414         8.21895        -0.84209
   C       -1.89602         9.62063        -0.64399
   N       -1.36861        10.53485        -1.52159
   C       -0.67680        10.24771        -2.75647
   C       -1.64216         9.90428        -3.88754
   C       -1.61936        11.86039        -1.11860
   O       -1.25776        12.83475        -1.74113
   C       -2.35092        11.72105         0.12476
   C       -2.49574        10.33937         0.39318
   C       -3.24576        10.20083         1.62259
   O       -3.60341         9.22553         2.25479
   N       -3.51531        11.51993         2.01517
   C       -4.28639        11.80013         3.20245
   C       -5.75311        12.07584         2.87933
   C       -3.00024        12.43969         1.12690
   C       -3.18756        13.83323         1.26522
   C       -2.65227        14.77645         0.44469
   C       -2.94899        16.15043         0.59844
   S       -4.16982        16.72085         1.72758
   C       -2.42979        17.24128        -0.07023
   C       -1.41304        17.47156        -1.11285
   O       -0.68519        16.70069        -1.68034
   N       -1.45182        18.84584        -1.33795
   C       -0.59105        19.51289        -2.29185
   C        0.62075        20.13087        -1.60356
   C       -2.36664        19.52687        -0.54680
   O       -2.58417        20.70995        -0.60929
   C       -2.98232        18.48423         0.29942
   C       -3.95681        18.40200         1.27491
   C       -4.75988        19.37689         1.91461
   C       -4.59218        20.72370         1.83999
   C       -5.49326        21.58198         2.51781
   C       -5.34433        22.92742         2.67984
   C       -6.29242        23.83610         3.30035
   C       -7.52144        23.51789         3.81952
   C       -8.40228        24.45349         4.40273
   N       -9.16888        25.15610         4.88951
   C       -8.09585        22.23030         3.85744
   N       -8.63691        21.21970         3.93331
   C       -5.71335        25.17408         3.26512
   C       -4.43281        25.10379         2.64582
   C       -4.13954        23.70663         2.27704
   O       -3.11286        23.28286         1.79646
   C       -3.65066        26.20972         2.47840
   C       -4.12109        27.46252         2.93176
   C       -5.40023        27.54155         3.55442
   C       -6.18842        26.37928         3.71265
   C       -5.85832        28.79501         4.00951
   C       -5.09096        29.91752         3.85807
   C       -3.83193        29.83881         3.24397
   C       -3.35769        28.63788         2.79016
   H       -5.16137        -2.64535         1.20928
   H       -1.23121        -2.02856        -1.80059
   H       -1.43836        -4.33283        -2.53279
   H       -2.57668        -6.51459        -2.44155
   H       -4.51220        -6.84574        -0.95471
   H       -5.32708        -4.99452         0.45175
   H       -4.05030         2.40281         1.62281
   H       -0.55719         2.72665        -4.40711
   H       -0.25139         4.46828        -4.67351
   H       -2.91088         3.03068        -5.17118
   H       -1.77748         3.54618        -6.42516
   H       -2.60827         4.75543        -5.43950
   H       -2.82077         7.71448         0.96858
   H       -1.38313         7.84750        -1.74523
   H        0.03114         9.43100        -2.59692
   H       -0.12442        11.15719        -3.00905
   H       -2.18007         8.98390        -3.67536
   H       -1.08516         9.77161        -4.81044
   H       -2.35871        10.71068        -4.02507
   H       -3.83857        12.64099         3.73878
   H       -4.21441        10.90523         3.82709
   H       -5.85666        12.93623         2.22197
   H       -6.30081        12.26936         3.79734
   H       -6.19191        11.21067         2.38870
   H       -3.81576        14.16676         2.08159
   H       -1.98522        14.50824        -0.36555
   H       -1.18019        20.28919        -2.78678
   H       -0.27886        18.76065        -3.01984
   H        0.29923        20.87052        -0.87403
   H        1.25255        20.61814        -2.34066
   H        1.20087        19.36166        -1.09870
   H       -5.55511        18.98204         2.53754
   H       -3.78065        21.15573         1.27188
   H       -6.37398        21.10732         2.93316
   H       -2.68306        26.12845         2.00582
   H       -7.15102        26.47388         4.18926
   H       -6.82841        28.84996         4.48145
   H       -5.44980        30.87278         4.21094
   H       -3.23961        30.73475         3.13280
   H       -2.38897        28.57141         2.31691
*
