# ORCA input file
# SCF done       -218.685902589932          0.000882748470
! CAM-B3LYP def2-SVP def2/J RIJCOSX Grid4 TightSCF
%maxcore 5000
%tddft
    Mode sTDDFT
    Ethresh 5.0
    maxcore 5000
end

%pal
  nprocs 6
  end
* xyz 0 1
   C        2.24587         5.51386         2.91213
   C        1.49388         6.46228         3.55128
   C        2.00479         7.70431         3.98269
   N        2.37161         8.73253         4.33600
   C        0.14967         6.26416         3.93089
   N       -0.93055         6.12114         4.29183
   C        3.69413         5.53933         2.76064
   C        4.15284         4.20180         2.56868
   C        5.48287         3.91065         2.46213
   C        6.42616         4.96027         2.53158
   C        5.97107         6.30156         2.69462
   C        4.58910         6.57419         2.80974
   C        6.92284         7.33998         2.75056
   C        8.26079         7.06830         2.65958
   C        8.70832         5.74747         2.50617
   C        7.81090         4.71617         2.44245
   C        2.99908         3.28806         2.51165
   O        2.99575         2.08624         2.40643
   C        1.79808         4.18364         2.53876
   C        0.59003         3.71699         2.14843
   C       -0.55890         4.46660         1.76783
   S       -0.47427         6.02976         0.96804
   C       -1.87646         4.10140         1.90364
   C       -2.63683         2.97115         2.47458
   O       -2.24755         1.93876         2.95392
   N       -3.97031         3.33270         2.31624
   C       -5.06544         2.51320         2.79118
   C       -5.40207         2.83416         4.24277
   C       -4.15706         4.57132         1.71258
   O       -5.22392         5.07625         1.46973
   C       -2.79521         5.06361         1.44599
   C       -2.22029         6.18608         0.89109
   C       -2.89269         7.30792         0.35327
   C       -2.28252         8.35313        -0.25802
   C       -2.95887         9.48630        -0.77930
   C       -2.39492        10.49608        -1.52505
   C       -3.39433        11.46474        -1.84222
   C       -4.64171        10.97646        -1.21790
   C       -4.37519         9.79587        -0.60604
   C       -5.90110        11.58609        -1.27024
   N       -6.94833        12.05699        -1.29764
   C       -3.25513        12.60845        -2.58720
   C       -4.23877        13.61889        -2.82586
   C       -3.71478        14.57600        -3.65683
   C       -2.34752        14.19054        -3.98051
   C       -2.05403        13.03357        -3.33203
   C       -0.82964        12.35962        -3.39808
   N        0.18520        11.82588        -3.47028
   C       -4.39731        15.74917        -4.10170
   C       -3.98237        16.54533        -5.10286
   C       -4.70254        17.71014        -5.56638
   S       -5.15767        17.76292        -7.23875
   C       -5.98393        19.26739        -7.03756
   C       -5.85717        19.73152        -5.74872
   C       -5.14453        18.83376        -4.90392
   C       -4.77581        19.18641        -3.49111
   F       -4.45435        18.12687        -2.73659
   F       -3.70407        19.99650        -3.45140
   F       -5.76630        19.80885        -2.84205
   C       -6.31858        21.09307        -5.31945
   F       -6.60777        21.87936        -6.36912
   F       -7.43264        21.05644        -4.56672
   F       -5.39454        21.74993        -4.61396
   C       -6.60841        19.83775        -8.20871
   N       -7.91686        20.22279        -8.32598
   C       -8.98283        20.01539        -7.37507
   C       -9.25193        18.53282        -7.13556
   C       -8.19006        20.71490        -9.62665
   O       -9.28977        21.09542        -9.96870
   C       -6.92971        20.61706       -10.32080
   C       -5.98472        20.04386        -9.41822
   C       -4.71396        19.93630       -10.09984
   O       -3.63833        19.49999        -9.75102
   N       -4.97710        20.45055       -11.38477
   C       -3.92200        20.57000       -12.36206
   C       -3.37069        21.99211       -12.42773
   C       -6.28236        20.86158       -11.52136
   C       -6.81206        21.41851       -12.73422
   C       -8.07781        21.82596       -12.84808
   H        5.81204         2.89077         2.33000
   H        4.26846         7.59778         2.92617
   H        6.57347         8.35451         2.87296
   H        8.98221         7.87006         2.70660
   H        9.76777         5.55129         2.43843
   H        8.14988         3.69758         2.32387
   H        0.48406         2.63768         2.08434
   H       -4.75875         1.46908         2.69336
   H       -5.92453         2.71139         2.14596
   H       -4.53527         2.66000         4.87598
   H       -6.21586         2.19877         4.58010
   H       -5.70577         3.87414         4.33775
   H       -3.96896         7.26902         0.45577
   H       -1.20549         8.33808        -0.37764
   H       -1.36644        10.56019        -1.82201
   H       -5.08179         9.19071        -0.07007
   H       -5.22668        13.61948        -2.40959
   H       -1.67821        14.74703        -4.60942
   H       -5.32391        15.96835        -3.58906
   H       -3.11887        16.27663        -5.69620
   H       -9.86211        20.48813        -7.82169
   H       -8.76397        20.51906        -6.43309
   H       -9.48105        18.03399        -8.07445
   H      -10.10040        18.42317        -6.46659
   H       -8.39132        18.04508        -6.68204
   H       -4.28764        20.24628       -13.34029
   H       -3.13287        19.88564       -12.03772
   H       -4.14673        22.69961       -12.71146
   H       -2.56641        22.04211       -13.15633
   H       -2.97796        22.28175       -11.45622
   H       -6.13570        21.49493       -13.57410
   H       -8.76915        21.75887       -12.02461
   H       -8.44901        22.23690       -13.77104
*
