# ORCA input file
# SCF done       -188.299639103134          0.000680843061
! CAM-B3LYP def2-SVP def2/J RIJCOSX Grid4 TightSCF
%maxcore 5000
%tddft
    Mode sTDDFT
    Ethresh 5.0
    maxcore 5000
end

%pal
  nprocs 6
  end
* xyz 0 1
   C       -6.76871         3.43539        10.71354
   C       -6.27207         2.15664        10.69241
   C       -6.00182         1.39298        11.84687
   N       -5.77300         0.71671        12.74578
   C       -5.94191         1.44068         9.52307
   N       -5.63683         0.81054         8.61291
   C       -7.02863         4.22997        11.90799
   C       -7.44908         5.52496        11.51452
   C       -7.75755         6.51096        12.41949
   C       -7.63886         6.20753        13.78003
   C       -7.22309         4.90982        14.16442
   C       -6.91615         3.91114        13.24857
   S       -7.15199         4.74717        15.89226
   C       -7.66923         6.40250        16.07334
   C       -7.88711         7.04526        14.90103
  Br       -7.87693         7.12315        17.79141
   C       -7.50671         5.59587        10.04308
   O       -7.95757         6.50199         9.37585
   C       -7.04464         4.26939         9.56293
   C       -7.05411         3.88163         8.25044
   C       -7.09266         4.75859         7.15240
   S       -7.63407         4.20717         5.56940
   C       -7.32327         5.73748         4.76646
   C       -6.81465         6.60489         5.72416
   C       -6.68242         6.07548         7.01081
   O       -6.07114         7.00511         7.78302
   C       -5.87405         8.08741         7.00171
   S       -5.17802         9.45770         7.48700
   O       -6.31879         7.87245         5.73901
   C       -7.54179         5.92911         3.39577
   C       -7.24055         7.11387         2.76527
   C       -7.34274         7.37224         1.40000
   C       -6.72670         8.45074         0.72740
   C       -6.04188         9.56598         1.23464
   C       -5.49730        10.46489         0.35751
   C       -5.61355        10.28232        -1.03432
   C       -6.27064         9.20251        -1.56180
   C       -6.84006         8.25759        -0.69204
   C       -7.53714         7.05347        -0.93964
   C       -8.02628         6.58206         0.36746
   C       -9.12731         5.85063         0.57373
   C       -7.69345         6.37832        -2.15188
   S       -7.16165         7.02664        -3.70883
   C       -7.55113         5.58380        -4.62967
   C       -8.08467         4.66856        -3.73986
   C       -8.16159         5.09074        -2.41137
   O       -8.65873         4.05142        -1.68003
   C       -8.87327         3.03445        -2.54714
   S       -9.46222         1.59625        -2.12212
   O       -8.53382         3.38726        -3.80851
   C       -7.34027         5.50319        -6.01531
   C       -7.67155         4.41003        -6.76254
   C       -7.45731         4.27410        -8.15041
   C       -7.22267         5.21022        -9.11887
   C       -7.36872         6.64591        -9.19358
   C       -8.26814         7.42613        -8.50968
   C       -8.41912         8.81294        -8.71234
   N       -8.56729         9.94586        -8.82361
   C       -9.19125         6.93306        -7.56804
   N       -9.96825         6.58658        -6.79695
   C       -6.56089         7.10633       -10.32102
   C       -6.12722         5.97880       -11.06241
   C       -6.59981         4.75144       -10.39405
   O       -6.47439         3.60750       -10.76451
   C       -5.36995         6.09087       -12.20281
   C       -5.01204         7.37612       -12.62398
   C       -5.43584         8.49505       -11.86736
   C       -6.21044         8.38199       -10.71890
   S       -4.86824         9.98468       -12.55692
   C       -4.08457         9.09819       -13.83807
   C       -4.23723         7.75512       -13.75407
  Br       -3.13577        10.02933       -15.16045
   H       -8.07333         7.48781        12.08859
   H       -6.60909         2.93702        13.59083
   H       -8.20964         8.06778        14.82822
   H       -7.04308         2.82830         8.00313
   H       -7.90194         5.07682         2.84131
   H       -6.80236         7.89712         3.36972
   H       -5.95947         9.71616         2.29995
   H       -4.97425        11.33315         0.72845
   H       -5.17749        11.01749        -1.69350
   H       -6.36187         9.08860        -2.62980
   H       -9.52419         5.70396         1.56305
   H       -9.69371         5.42170        -0.23194
   H       -6.85598         6.35570        -6.47033
   H       -8.06812         3.54407        -6.25049
   H       -7.40091         3.25246        -8.51668
   H       -5.06155         5.21549       -12.75232
   H       -6.50305         9.26284       -10.17185
   H       -3.82046         7.05868       -14.45843
*
