# ORCA input file
# SCF done       -228.982474918384          0.000699569373
! CAM-B3LYP def2-SVP def2/J RIJCOSX Grid4 TightSCF
%maxcore 5000
%tddft
    Mode sTDDFT
    Ethresh 5.0
    maxcore 5000
end

%pal
  nprocs 6
  end
* xyz 0 1
   C       -5.96777        -2.25641         0.51228
   C       -6.48219        -2.90378         1.60253
   C       -6.51333        -4.30871         1.74546
   N       -6.55997        -5.44158         1.92068
   C       -7.05028        -2.27960         2.73508
   N       -7.54004        -1.85394         3.68145
   C       -5.42459        -2.89406        -0.67962
   C       -4.96617        -1.89258        -1.57231
   C       -4.40981        -2.18719        -2.79407
   C       -4.31452        -3.53276        -3.16162
   C       -4.77645        -4.52752        -2.26431
   C       -5.32772        -4.23053        -1.02482
   S       -4.56665        -6.12311        -2.91626
   C       -3.87515        -5.44473        -4.36618
   C       -3.80162        -4.09162        -4.36307
  Br       -3.31669        -6.58379        -5.74556
   C       -5.17654        -0.56465        -0.97303
   O       -4.74492         0.49084        -1.37998
   C       -5.90724        -0.81537         0.30490
   C       -6.34772         0.14826         1.14972
   C       -6.48480         1.53714         0.82163
   C       -6.24884         2.52781         1.79820
   C       -6.38030         3.93159         1.50792
   N       -6.25701         4.82304         2.50324
   C       -5.88130         4.41966         3.68604
   C       -5.60966         3.02910         3.93699
   N       -5.83789         2.13246         3.01636
   C       -5.11914         2.62561         5.20541
   N       -4.70980         2.34928         6.23815
   C       -5.74947         5.37880         4.72207
   N       -5.60626         6.14727         5.55875
   C       -6.68967         4.39330         0.20920
   C       -6.96117         3.40684        -0.75231
   C       -6.90342         1.99666        -0.43814
   N       -7.28008         1.24472        -1.47648
   S       -7.58275         2.19531        -2.72253
   N       -7.29385         3.60575        -2.03482
   C       -6.75941         5.80253        -0.09769
   C       -7.77214         6.31223        -0.93494
   C       -7.83759         7.70720        -1.27756
   N       -8.70192         8.09676        -2.22983
   C       -9.56640         7.25237        -2.72575
   C       -9.65975         5.92426        -2.17895
   N       -8.75680         5.49532        -1.34511
   C      -10.69665         5.04522        -2.57973
   N      -11.50887         4.32295        -2.93942
   C      -10.40581         7.67797        -3.78296
   N      -11.08398         8.02579        -4.63797
   C       -6.99467         8.67015        -0.67974
   C       -6.02466         8.16954         0.20817
   C       -5.88432         6.74990         0.46125
   N       -4.86277         6.50012         1.28848
   S       -4.21614         7.88626         1.75281
   N       -5.14612         8.88044         0.91872
   C       -7.14382        10.07289        -0.97015
   C       -8.41717        10.63357        -1.21816
   C       -8.59520        12.02473        -1.53036
   N       -9.80913        12.47654        -1.89375
   C      -10.82481        11.65838        -1.90766
   C      -10.68068        10.30695        -1.44038
   N       -9.49938         9.84431        -1.12390
   C      -11.79403         9.43991        -1.31478
   N      -12.68076         8.72079        -1.22408
   C      -12.09116        12.11796        -2.35326
   N      -13.12822        12.45462        -2.70103
   C       -7.52535        12.94358        -1.46719
   C       -6.25242        12.38621        -1.23532
   C       -6.06040        10.96712        -1.02733
   N       -4.76456        10.65818        -0.93529
   S       -3.89441        11.98856        -1.05253
   N       -5.08757        13.04109        -1.25495
   C       -7.76523        14.32744        -1.72970
   C       -7.07644        15.41304        -1.30338
   C       -6.03480        15.59232        -0.31187
   C       -5.84472        14.83189         0.81082
   C       -4.83291        15.07120         1.76308
   N       -4.00645        15.20109         2.54859
   C       -6.66928        13.74781         1.17116
   N       -7.32406        12.86980         1.51543
   C       -5.37915        16.86091        -0.59965
   C       -6.13377        17.55556        -1.58050
   C       -7.27567        16.72182        -2.00042
   O       -8.15832        16.99924        -2.77431
   C       -5.78806        18.80841        -2.02666
   C       -4.64070        19.39970        -1.48774
   C       -3.88573        18.69184        -0.51986
   C       -4.23837        17.42809        -0.06328
   S       -2.50407        19.60387         0.00379
   C       -2.95374        20.90809        -1.06334
   C       -4.08008        20.67287        -1.77854
  Br       -1.89353        22.45197        -1.13395
   H       -4.06582        -1.40242        -3.44935
   H       -5.66184        -5.02403        -0.37773
   H       -3.40252        -3.51146        -5.17486
   H       -6.62059        -0.10475         2.16606
   H       -8.60609        14.53287        -2.38548
   H       -6.38520        19.31795        -2.76644
   H       -3.63166        16.92451         0.67101
   H       -4.49953        21.36819        -2.48240
*
