# ORCA input file
# SCF done       -181.629640367004          0.000368412658
! CAM-B3LYP def2-SVP def2/J RIJCOSX Grid4 TightSCF
%maxcore 5000
%tddft
    Mode sTDDFT
    Ethresh 5.0
    maxcore 5000
end

%pal
  nprocs 6
  end
* xyz 0 1
   C       -2.75762         4.84782        -6.27905
   C       -3.41852         4.67941        -5.07895
   C       -3.02114         5.24173        -3.84923
   N       -2.78217         5.64141        -2.79872
   C       -4.52709         3.85346        -4.85221
   N       -5.42331         3.17948        -4.58544
   C       -1.49554         5.57683        -6.40885
   C       -0.95841         5.35099        -7.69982
   C        0.23898         5.88105        -8.11014
   C        0.94218         6.68312        -7.20378
   C        0.39322         6.91501        -5.92119
   C       -0.81778         6.37367        -5.50573
   S        1.41980         7.93836        -4.96276
   C        2.55810         8.03687        -6.27983
   C        2.18961         7.34086        -7.38166
  Br        4.12498         9.04699        -6.07471
   C       -1.89190         4.50245        -8.46274
   O       -1.76612         4.09186        -9.59530
   C       -3.04959         4.26966        -7.56437
   C       -4.12924         3.62858        -8.11479
   N       -5.35379         3.48230        -7.60271
   C       -6.37229         2.73068        -8.10686
   S       -6.16479         1.64973        -9.44503
   C       -7.77683         1.06219        -9.18244
   N       -8.25465         0.07175       -10.05169
   O       -9.37842        -0.35245        -9.86292
   O       -7.49871        -0.29108       -10.93566
   C       -8.42051         1.65933        -8.13278
   C       -7.63745         2.65183        -7.50952
   C       -8.07249         3.47175        -6.41577
   C       -7.69657         4.76718        -6.24210
   C       -8.03074         5.60597        -5.15750
   C       -8.15120         7.00172        -5.20707
   C       -7.92527         7.91986        -6.25024
   C       -8.12104         9.25114        -6.01899
   C       -8.53686         9.72531        -4.75222
   C       -8.77525         8.86909        -3.71812
   C       -8.61645         7.48141        -3.92616
   C       -8.77635         6.39424        -3.06847
   C       -8.39238         5.19692        -3.80457
   C       -8.29175         3.96616        -3.26846
   C       -8.99650         6.45784        -1.64765
   C       -9.98175         7.25748        -1.09256
   C      -10.14414         7.38157         0.28252
   C       -9.30413         6.73295         1.16960
   C       -8.24856         5.94062         0.64607
   C       -8.11419         5.77200        -0.75733
   N       -7.12493         4.99640        -1.23340
   C       -6.28412         4.42050        -0.41861
   C       -6.43069         4.58632         0.99249
   N       -7.39795         5.31374         1.47896
   C       -5.49570         3.94139         1.95800
   C       -5.19535         3.59773        -1.01446
   C       -9.45929         6.85892         2.60641
   O       -8.37182         6.97800         3.36595
   C       -8.75192         7.13981         4.65007
   C      -10.13878         7.11385         4.73428
   C      -10.60059         6.91136         3.40062
   C      -11.98164         6.64837         2.92335
   F      -12.01486         5.94833         1.77800
   F      -12.71617         5.93262         3.79147
   F      -12.69439         7.77620         2.68439
   O      -10.77247         7.27222         5.91121
   C      -12.10593         7.75023         5.93508
   C       -7.78766         7.29862         5.70261
   C       -6.47039         7.27913         5.51436
   H        0.62246         5.68379        -9.09873
   H       -1.19295         6.58660        -4.51878
   H        2.77239         7.29191        -8.28318
   H       -3.98390         3.24641        -9.12074
   H       -5.55724         3.86826        -6.68155
   H       -9.42537         1.40657        -7.84663
   H       -8.80628         3.03384        -5.75661
   H       -7.15883         5.25476        -7.04959
   H       -7.59323         7.57208        -7.21772
   H       -7.94690         9.96880        -6.80730
   H       -8.65948        10.78949        -4.61466
   H       -9.07594         9.23688        -2.74883
   H       -7.80006         3.16797        -3.79875
   H       -8.72154         3.72476        -2.31356
   H      -10.66477         7.77389        -1.74959
   H      -10.93312         8.01433         0.65941
   H       -4.47014         4.23590         1.74227
   H       -5.55794         2.85670         1.88101
   H       -5.75893         4.24361         2.96754
   H       -5.39975         3.44228        -2.07065
   H       -4.24292         4.11926        -0.91930
   H       -5.11020         2.63764        -0.51039
   H      -12.21819         8.25937         6.89203
   H      -12.82198         6.92745         5.88405
   H      -12.29710         8.45853         5.12631
   H       -8.22449         7.43667         6.68076
   H       -6.05179         7.13526         4.53315
   H       -5.78298         7.40527         6.33131
*
