# ORCA input file
# SCF done       -185.620149242941          0.000464577939
! CAM-B3LYP def2-SVP def2/J RIJCOSX Grid4 TightSCF
%maxcore 5000
%tddft
    Mode sTDDFT
    Ethresh 5.0
    maxcore 5000
end

%pal
  nprocs 6
  end
* xyz 0 1
   C       -1.44744        -0.99044         1.42433
   C       -1.89486        -2.28230         1.22144
   C       -1.07415        -3.42303         1.28478
   N       -0.47073        -4.40122         1.32385
   C       -3.21019        -2.67061         0.92479
   N       -4.24787        -3.10444         0.67589
   C       -0.05929        -0.62751         1.71402
   C        0.01712         0.77867         1.85474
   C        1.19047         1.43340         2.12881
   C        2.35038         0.66176         2.27397
   C        2.26411        -0.74052         2.13267
   C        1.07382        -1.40371         1.85280
   S        3.81281        -1.50168         2.35108
   C        4.54240         0.05747         2.62717
   C        3.67545         1.09422         2.55847
  Br        6.38343         0.16911         2.97734
   C       -1.33411         1.35689         1.66217
   O       -1.61882         2.53957         1.71811
   C       -2.21821         0.21453         1.39734
   C       -3.58652         0.31066         1.17590
   C       -4.32273         1.47915         1.18286
   C       -5.69802         1.49542         0.97634
   C       -6.55381         2.60974         0.99664
   C       -7.87500         2.30672         0.78174
   C       -8.10990         0.94035         0.57696
   S       -6.61197         0.04152         0.66147
   C       -9.31265         0.28033         0.34151
   C      -10.61616         0.79974         0.28536
   C      -11.57499        -0.14938         0.04980
   C      -11.07681        -1.45899        -0.10017
   S       -9.33259        -1.44039         0.07607
   C      -11.83938        -2.58792        -0.33785
   C      -11.40308        -3.89552        -0.52978
   S      -12.61681        -5.16104        -0.76662
   C      -10.10442        -4.41976        -0.59035
   C      -10.07720        -5.78179        -0.80893
   C       -9.09502        -6.85132        -0.99845
   C       -7.75289        -6.77278        -0.85286
   C       -6.84755        -7.93320        -1.15476
   N       -7.06065        -8.42424        -2.51820
   C       -7.08584        -5.49715        -0.40323
   N       -5.71030        -5.70163         0.01244
   C      -11.38174        -6.33045        -0.94015
   C      -11.26944        -7.68997        -1.22434
   S      -12.31301        -9.02207        -1.51669
   C       -9.89969        -8.03385        -1.30133
   C       -9.71994        -9.37456        -1.61166
   C      -10.91867       -10.06178        -1.76431
   C      -11.06725       -11.42684        -2.09278
   C      -12.25914       -12.07248        -2.18551
   C      -12.41005       -13.43223        -2.53192
   O      -11.34872       -14.21838        -2.85742
   C      -11.80962       -15.46211        -3.14902
   C      -13.19317       -15.47940        -3.00381
   C      -13.58001       -14.18575        -2.61261
   O      -14.83062       -13.74610        -2.36060
   O      -14.07173       -16.50466        -3.18956
   C      -10.93070       -16.50402        -3.54611
   C       -9.59378       -16.34795        -3.70389
   C       -8.65928       -17.34688        -4.11695
   C       -8.93282       -18.66230        -4.25523
   C       -8.05168       -19.72876        -4.66743
   C       -6.75510       -19.55455        -5.20951
   O       -6.30505       -18.28079        -5.36912
   C       -5.04848       -18.06371        -5.96485
   C       -6.00635       -20.66989        -5.56741
   C       -6.50514       -21.95049        -5.40450
   C       -7.77346       -22.13864        -4.88510
   C       -8.52538       -21.03884        -4.53033
   H        1.21676         2.50714         2.23021
   H        1.06237        -2.47619         1.75398
   H        3.95539         2.12198         2.70176
   H       -4.13084        -0.60829         0.99197
   H       -3.82572         2.42025         1.36614
   H       -6.17935         3.60239         1.17275
   H       -8.66714         3.03402         0.76611
   H      -10.82153         1.84572         0.42426
   H      -12.62769         0.06120        -0.02166
   H      -12.90986        -2.42932        -0.37913
   H       -9.24170        -3.78980        -0.50355
   H       -7.07087        -8.75942        -0.46941
   H       -5.81561        -7.60237        -0.97613
   H       -6.93663        -7.66136        -3.17551
   H       -6.35893        -9.12543        -2.73356
   H       -7.70700        -5.03592         0.38095
   H       -7.07215        -4.80525        -1.25440
   H       -5.67889        -6.15914         0.91779
   H       -5.23781        -4.80705         0.11102
   H       -8.76871        -9.84449        -1.76606
   H      -10.15540       -11.97735        -2.27853
   H      -13.18434       -11.55025        -1.98638
   H      -15.44015       -14.48324        -2.49657
   H      -13.59152       -17.29422        -3.45957
   H      -11.39932       -17.45918        -3.74092
   H       -9.19045       -15.36164        -3.51919
   H       -7.65961       -16.99495        -4.31195
   H       -9.92888       -19.00653        -4.00390
   H       -4.93184       -16.98176        -6.01205
   H       -5.00582       -18.47426        -6.97849
   H       -4.23729       -18.48652        -5.36369
   H       -5.01709       -20.55007        -5.97969
   H       -5.89856       -22.79688        -5.68922
   H       -8.17158       -23.13388        -4.75972
   H       -9.51607       -21.18463        -4.12353
*
