# ORCA input file
# SCF done       -176.127633059064          0.000489473149
! CAM-B3LYP def2-SVP def2/J RIJCOSX Grid4 TightSCF
%maxcore 5000
%tddft
    Mode sTDDFT
    Ethresh 5.0
    maxcore 5000
end

%pal
  nprocs 6
  end
* xyz 0 1
   C       -9.75824        -1.14539        -3.40524
   C      -10.69223        -1.66413        -2.53897
   C      -11.60248        -2.68620        -2.87839
   N      -12.36816        -3.51744        -3.08335
   C      -10.91260        -1.26932        -1.20447
   N      -11.17756        -1.00859        -0.11570
   C       -9.60256        -1.55842        -4.79658
   C       -8.57574        -0.78199        -5.38291
   C       -8.19307        -0.92085        -6.69413
   C       -8.85675        -1.87791        -7.46904
   C       -9.88065        -2.65234        -6.87536
   C      -10.26741        -2.50955        -5.54804
   S      -10.57115        -3.77455        -8.00890
   C       -9.48911        -3.19491        -9.24712
   C       -8.65312        -2.21230        -8.83579
  Br       -9.56641        -3.93961       -10.96728
   C       -8.02647         0.14862        -4.37700
   O       -7.14068         0.95625        -4.58543
   C       -8.77758        -0.11108        -3.13378
   C       -8.64173         0.49745        -1.90741
   C       -7.77984         1.50538        -1.44945
   C       -6.66981         2.09531        -2.00588
   C       -6.13345         3.12619        -1.16766
   C       -6.92679         3.15650        -0.03239
   C       -7.94517         2.06644        -0.05809
   C       -9.23827         2.70569         0.43709
   C       -8.80517         3.53048         1.64558
   S       -7.19345         4.30944         1.19886
   C       -5.01882         3.97923        -1.39638
   C       -4.32849         4.17480        -2.55870
   C       -4.57089         3.72906        -3.88744
   C       -3.64313         4.13900        -4.79054
   C       -2.59980         4.92729        -4.24589
   S       -2.86791         5.16805        -2.53462
   C       -1.50552         5.43764        -4.91031
   C       -1.18330         5.28118        -6.27958
   C       -0.01817         5.87345        -6.65299
   C        0.66596         6.53646        -5.60248
   S       -0.26048         6.37044        -4.11067
   C        1.86517         7.19994        -5.57537
   C        2.73374         7.51294        -6.64317
   C        2.60000         7.40046        -8.00013
   C        3.76624         7.88775        -8.69602
   C        4.64906         8.33249        -7.73360
   C        4.12416         8.03322        -6.36624
   C        4.39090         9.28853        -5.54341
   C        5.81250         9.69164        -5.92094
   S        5.96650         9.41905        -7.73566
   C        3.84565         7.97915       -10.10523
   C        4.91169         8.22272       -10.92131
   C        6.33740         8.24617       -10.71779
   C        7.05359         7.54780        -9.77305
   C        8.45617         7.59171        -9.65140
   N        9.59290         7.59998        -9.48852
   C        6.48233         6.62379        -8.88027
   N        6.06252         5.85397        -8.13789
   C        6.92788         8.96952       -11.84132
   C        5.92597         9.19006       -12.81897
   C        4.63969         8.66899       -12.31544
   O        3.57520         8.64090       -12.89066
   C        6.18515         9.80917       -14.01678
   C        7.49335        10.24414       -14.25665
   C        8.48244        10.03490       -13.26737
   C        8.22227         9.39934       -12.05867
   S       10.02551        10.65996       -13.76506
   C        9.33100        11.18157       -15.27741
   C        8.01180        10.90561       -15.40399
  Br       10.41344        12.04270       -16.54464
   H       -7.40656        -0.31038        -7.10946
   H      -11.05433        -3.12544        -5.14688
   H       -7.92310        -1.74141        -9.46854
   H       -9.34410         0.17085        -1.15172
   H       -6.25649         1.80964        -2.95156
   H       -7.65019         1.28118         0.65322
   H       -9.98950         1.96974         0.72180
   H       -9.65165         3.35242        -0.33933
   H       -8.63189         2.90101         2.51888
   H       -9.49989         4.32584         1.90437
   H       -4.68204         4.52959        -0.52688
   H       -5.43369         3.14953        -4.15570
   H       -3.67916         3.89482        -5.83705
   H       -1.81736         4.72861        -6.94954
   H        0.38050         5.81891        -7.64746
   H        2.19545         7.53395        -4.59987
   H        1.73895         7.04887        -8.53488
   H        4.71228         7.20239        -5.95145
   H        4.31678         9.11389        -4.47073
   H        3.68377        10.07170        -5.82450
   H        6.55252         9.05277        -5.43784
   H        6.04329        10.73469        -5.71735
   H        2.89382         7.91880       -10.62503
   H        5.40471         9.95418       -14.74721
   H        9.00770         9.26578       -11.33357
   H        7.42619        11.15674       -16.26944
*
