# ORCA input file
# SCF done       -172.955075295101          0.000981859649
! CAM-B3LYP def2-SVP def2/J RIJCOSX Grid4 TightSCF
%maxcore 5000
%tddft
    Mode sTDDFT
    Ethresh 5.0
    maxcore 5000
end

%pal
  nprocs 6
  end
* xyz 0 1
   C      -16.28648        -1.39856        -4.00363
   C      -16.48610        -0.51618        -5.02959
   F      -17.71436        -0.03729        -5.27804
   C      -15.41000        -0.10209        -5.83525
   F      -15.63272         0.76091        -6.84172
   C      -14.14732        -0.57256        -5.60579
   C      -13.91029        -1.47939        -4.55714
   C      -14.99785        -1.90273        -3.74068
   C      -14.78188        -2.81601        -2.68150
   C      -13.51807        -3.28739        -2.44730
   C      -12.43580        -2.85511        -3.26890
   C      -12.61258        -1.97741        -4.29904
   C      -11.20362        -3.49918        -2.79890
   O      -10.07105        -3.37095        -3.26188
   C      -11.58332        -4.33282        -1.65845
   C      -13.00390        -4.21696        -1.44333
   C      -13.75334        -4.85775        -0.48645
   C      -15.14476        -4.70361        -0.33650
   N      -16.27763        -4.61780        -0.16667
   C      -13.22286        -5.75764         0.45784
   N      -12.83187        -6.49102         1.25084
   C      -10.64673        -5.06698        -0.96334
   N       -9.36342        -5.02342        -1.34148
   C       -8.30871        -5.66088        -0.78558
   S       -8.48870        -6.70673         0.59044
   C       -6.78009        -7.01097         0.54892
   N       -6.24080        -7.87064         1.50819
   O       -5.03913        -8.08054         1.46711
   O       -7.01537        -8.35051         2.32041
   C       -6.12592        -6.34922        -0.45694
   C       -6.98460        -5.56061        -1.24386
   C       -6.59365        -4.75119        -2.36589
   C       -5.34557        -4.66669        -2.86612
   C       -5.03157        -3.83705        -3.99099
   C       -3.82124        -3.72249        -4.56183
   C       -2.61308        -4.48574        -4.10667
   C       -3.65138        -2.85817        -5.78794
   N       -3.81611        -3.65623        -6.98572
   C       -5.00749        -3.82444        -7.58756
   C       -5.26551        -4.79557        -8.51071
   C       -6.45873        -4.97347        -9.23094
   C       -7.62358        -4.23837        -9.22595
   C       -8.75452        -4.51886       -10.02604
   C       -9.78847        -3.63684        -9.88660
   C       -9.53634        -2.60674        -8.96390
   S       -7.94823        -2.80061        -8.26557
   C      -10.36194        -1.54211        -8.61978
   C      -11.63521        -1.23900        -9.12407
   C      -12.18069        -0.09110        -8.60763
   C      -11.36311         0.56127        -7.67025
   S       -9.87295        -0.33303        -7.45337
   C      -11.59257         1.73144        -6.94941
   C      -12.74704         2.48387        -7.00478
   C      -12.95973         3.64568        -6.27321
   C      -14.12505         4.42993        -6.26672
   C      -14.05679         5.53198        -5.45815
   C      -12.82501         5.66968        -4.78945
   S      -11.75824         4.34616        -5.20832
   C      -12.43301         6.67560        -3.92463
   C      -13.19273         7.79765        -3.50938
   C      -12.54236         8.63049        -2.66059
   C      -11.20784         8.22227        -2.34075
   S      -10.84558         6.71011        -3.18810
   C      -10.32496         8.83892        -1.53973
   H      -17.12246        -1.70731        -3.39568
   H      -13.33196        -0.24546        -6.22977
   H      -15.62452        -3.11754        -2.08090
   H      -11.77787        -1.66323        -4.90740
   H      -10.89952        -5.68435        -0.11184
   H       -9.20249        -4.41047        -2.16359
   H       -5.06535        -6.44291        -0.59764
   H       -7.37009        -4.16884        -2.84430
   H       -4.54149        -5.23377        -2.42393
   H       -5.85562        -3.26257        -4.39471
   H       -2.79934        -5.55910        -4.11676
   H       -2.34783        -4.20598        -3.08771
   H       -1.75755        -4.27886        -4.74503
   H       -2.65544        -2.40574        -5.80677
   H       -4.40027        -2.06434        -5.80750
   H       -3.12000        -4.37377        -7.13767
   H       -5.75591        -3.09520        -7.32028
   H       -4.47663        -5.50650        -8.72255
   H       -6.47166        -5.81944        -9.90746
   H       -8.77021        -5.36444       -10.69133
   H      -10.71520        -3.70352       -10.42736
   H      -12.12236        -1.85733        -9.85642
   H      -13.14433         0.29090        -8.89379
   H      -10.80275         2.06497        -6.28847
   H      -13.56082         2.17199        -7.64419
   H      -14.98549         4.16079        -6.85390
   H      -14.85658         6.23954        -5.33459
   H      -14.20034         7.95114        -3.85342
   H      -12.95794         9.52948        -2.24147
   H      -10.58383         9.75734        -1.04334
   H       -9.34082         8.44194        -1.37125
*
