# ORCA input file
# SCF done       -209.242170079894          0.000772283688
! CAM-B3LYP def2-SVP def2/J RIJCOSX Grid4 TightSCF
%maxcore 5000
%tddft
    Mode sTDDFT
    Ethresh 5.0
    maxcore 5000
end

%pal
  nprocs 6
  end
* xyz 0 1
   C      -11.15951         0.48554         6.93084
   C      -11.10168         1.13921         8.12996
   F      -12.07059         1.99747         8.47636
   C      -10.02720         0.92077         9.01476
   F       -9.99640         1.57488        10.18410
   C       -9.02447         0.05099         8.68810
   C       -9.05584        -0.63739         7.46019
   C      -10.14128        -0.41679         6.56387
   C      -10.19215        -1.09398         5.32304
   C       -9.18665        -1.96165         4.98872
   C       -8.10888        -2.17773         5.89248
   C       -8.03381        -1.54345         7.09811
   C       -7.17632        -3.15489         5.30688
   O       -6.19388        -3.63648         5.84600
   C       -7.72503        -3.50661         3.99047
   C       -8.96155        -2.77679         3.79688
   C       -9.75278        -2.78220         2.67702
   C       -9.49020        -3.51007         1.49750
   N       -9.33863        -4.05901         0.50021
   C      -10.94108        -2.03331         2.54764
   N      -11.91775        -1.45290         2.38304
   C       -7.23342        -4.49316         3.16897
   C       -5.97479        -5.11025         3.19581
   S       -5.82134        -6.66692         2.40079
   C       -4.11787        -6.78255         2.73658
   C       -3.69549        -5.62762         3.39577
   C       -4.72016        -4.70610         3.66102
   S       -4.25778        -3.18905         4.35549
   C       -2.51039        -3.50593         4.37872
   O       -1.69706        -2.71399         4.73812
   S       -2.08286        -5.15648         3.85235
   C       -3.40320        -7.92431         2.33747
   C       -2.08322        -8.16009         2.61410
   C       -1.37851        -9.28087         2.17024
   C       -0.04898        -9.50415         2.45110
   C        0.74024       -10.59843         2.02841
   C        2.02978       -10.56366         2.46666
   C        2.33099        -9.43085         3.25475
   S        0.91896        -8.40986         3.42294
   C        3.54982        -9.10170         3.81484
   C        4.74197        -9.86368         3.79212
   C        5.82008        -9.22569         4.31814
   C        5.54343        -7.91310         4.78771
   S        3.82139        -7.56580         4.61397
   C        6.46198        -7.00159         5.21264
   N        6.17167        -5.78782         5.74991
   C        7.06856        -4.76634         5.86329
   S        6.92214        -3.67088         7.20590
   C        8.43812        -2.94990         6.76499
   N        8.90208        -1.87593         7.53963
   O        9.96598        -1.37619         7.23057
   O        8.19642        -1.53214         8.47056
   C        9.01345        -3.52053         5.66406
   C        8.22380        -4.54369         5.09842
   C        8.56701        -5.13059         3.82224
   C        7.68807        -5.47943         2.85348
   C        6.30389        -5.17451         2.94754
   C        5.18330        -5.67209         2.35910
   C        3.91600        -4.93757         2.64439
   O        3.80071        -4.00458         3.40685
   C        2.87471        -5.59633         1.84358
   C        1.56142        -5.25444         1.69993
   C        0.73294        -6.05617         0.88551
   C        1.28580        -7.19911         0.23911
   C        0.44337        -8.01995        -0.53686
   C       -0.88437        -7.72156        -0.65995
   C       -1.42393        -6.57721        -0.04037
   C       -0.63131        -5.75730         0.71111
   F       -2.72830        -6.30400        -0.18631
   F       -1.69078        -8.52425        -1.36779
   C        2.65497        -7.51491         0.39387
   C        3.44215        -6.72789         1.19306
   C        4.85544        -6.83665         1.56330
   C        5.62562        -7.94376         1.32166
   C        6.94832        -8.16156         1.75422
   N        8.01110        -8.45006         2.07925
   C        5.13613        -9.11784         0.71006
   N        4.79201       -10.11846         0.26421
   H      -11.98890         0.66535         6.26472
   H       -8.20848        -0.10543         9.37619
   H      -11.02915        -0.90761         4.66990
   H       -7.20428        -1.72631         7.76403
   H       -7.89913        -4.89083         2.41250
   H       -3.95928        -8.65496         1.76619
   H       -1.53165        -7.44443         3.20956
   H       -1.89301       -10.01717         1.56744
   H        0.32870       -11.37890         1.41361
   H        2.77137       -11.30356         2.22769
   H        4.77031       -10.85273         3.37357
   H        6.81043        -9.63890         4.37286
   H        7.51218        -7.24650         5.13969
   H        5.21816        -5.61711         6.04848
   H        9.94576        -3.17711         5.25300
   H        9.62553        -5.24840         3.63744
   H        8.06220        -5.95017         1.95847
   H        6.07717        -4.32442         3.59047
   H        1.15934        -4.39356         2.21129
   H        0.84163        -8.89596        -1.02459
   H       -1.05461        -4.88368         1.17939
   H        3.04234        -8.37517        -0.12712
*
