# ORCA input file
# SCF done       -174.688316190211          0.000548121115
! CAM-B3LYP def2-SVP def2/J RIJCOSX Grid4 TightSCF
%maxcore 5000
%tddft
    Mode sTDDFT
    Ethresh 5.0
    maxcore 5000
end

%pal
  nprocs 6
  end
* xyz 0 1
   C       -0.54784       -11.32606        -9.90186
   C       -0.42602       -10.82050       -11.16672
   F        0.10939       -11.56710       -12.14092
   C       -0.86008        -9.51326       -11.46086
   F       -0.72961        -9.04234       -12.70835
   C       -1.40882        -8.72753       -10.48535
   C       -1.54415        -9.21880        -9.17309
   C       -1.10806       -10.54187        -8.87477
   C       -1.23661       -11.05777        -7.56352
   C       -1.77926       -10.27391        -6.58132
   C       -2.20723        -8.94871        -6.88703
   C       -2.10050        -8.42607        -8.14396
   C       -2.73346        -8.33042        -5.66538
   O       -3.18193        -7.19001        -5.53918
   C       -2.61491        -9.33614        -4.61069
   C       -2.02938       -10.53357        -5.16471
   C       -1.74990       -11.70229        -4.50271
   C       -1.17369       -12.83671        -5.10824
   N       -0.70772       -13.78919        -5.54864
   C       -2.00342       -11.91310        -3.13274
   N       -2.19417       -12.12371        -2.02019
   C       -3.02208        -9.07933        -3.32030
   N       -3.53594        -7.88313        -3.01538
   C       -3.97420        -7.44618        -1.80999
   S       -3.93817        -8.45520        -0.39747
   C       -4.59264        -7.13973         0.52396
   N       -4.82670        -7.34644         1.88849
   O       -5.28257        -6.41620         2.52933
   O       -4.55359        -8.44835         2.33256
   C       -4.81842        -6.00643        -0.21152
   C       -4.47198        -6.15786        -1.56654
   C       -4.58843        -5.15519        -2.59547
   C       -4.95598        -3.87904        -2.38879
   C       -5.07024        -2.86021        -3.40387
   C       -4.36056        -2.72939        -4.53318
   C       -3.24404        -3.62637        -4.96601
   C       -4.64014        -1.57003        -5.46454
   N       -5.02715        -2.01695        -6.78111
   C       -6.29888        -2.26078        -7.14329
   C       -6.66415        -2.82874        -8.32595
   C       -8.00228        -3.00374        -8.71188
   C       -8.40891        -3.51820        -9.91630
   C       -9.73797        -3.69895       -10.36511
   C       -9.84214        -4.19838       -11.62788
   C       -8.59851        -4.44540       -12.25232
   S       -7.28772        -4.03063       -11.17711
   C       -8.37939        -4.92538       -13.53081
   C       -9.34492        -5.30198       -14.48788
   C       -8.82248        -5.70529       -15.67972
   C       -7.40913        -5.66592       -15.73332
   S       -6.77026        -5.14471       -14.18602
   C       -6.56197        -6.02210       -16.75489
   C       -6.93308        -6.22466       -18.09568
   S       -5.94573        -7.26696       -19.10768
   C       -6.94886        -7.02996       -20.52091
   C       -7.97740        -6.16279       -20.21425
   C       -7.96635        -5.70275       -18.86434
   C       -8.94010        -4.64087       -18.67495
   O       -9.11330        -3.93040       -17.70737
   C       -9.70634        -4.53371       -19.98750
   C       -9.06158        -5.51476       -20.95318
   O       -9.41301        -5.68788       -22.09702
   C       -6.56797        -7.71592       -21.72251
   C       -7.23900        -7.69137       -22.87379
   H       -0.21141       -12.32971        -9.69386
   H       -1.73747        -7.72921       -10.72848
   H       -0.89991       -12.06333        -7.37084
   H       -2.43496        -7.42137        -8.35356
   H       -2.94318        -9.80918        -2.52579
   H       -3.57761        -7.23779        -3.82540
   H       -5.22625        -5.11662         0.23066
   H       -4.39415        -5.48225        -3.60454
   H       -5.22620        -3.55739        -1.39211
   H       -5.79140        -2.08543        -3.17010
   H       -2.72352        -4.03451        -4.10233
   H       -2.52900        -3.07223        -5.57223
   H       -3.61027        -4.46333        -5.56101
   H       -3.73930        -0.95377        -5.56505
   H       -5.44172        -0.94507        -5.06484
   H       -4.30002        -2.40059        -7.36677
   H       -7.05269        -1.92781        -6.44261
   H       -5.89848        -3.14819        -9.02032
   H       -8.77607        -2.70182        -8.01787
   H      -10.57717        -3.44809        -9.74009
   H      -10.77405        -4.38936       -12.12812
   H      -10.39821        -5.27181       -14.27457
   H       -9.40752        -6.07964       -16.49768
   H       -5.51740        -6.17034       -16.51581
   H       -9.66885        -3.51676       -20.38357
   H      -10.76230        -4.77314       -19.84155
   H       -5.65594        -8.29379       -21.63333
   H       -8.14815        -7.12807       -22.99092
   H       -6.88250        -8.23745       -23.73004
*
