# ORCA input file
# SCF done       -133.025185448430          0.000645179027
! CAM-B3LYP def2-SVP def2/J RIJCOSX Grid4 TightSCF
%maxcore 5000
%tddft
    Mode sTDDFT
    Ethresh 5.0
    maxcore 5000
end

%pal
  nprocs 6
  end
* xyz 0 1
   C       17.90767       -11.37267         1.77821
   C       17.28526       -10.24388         1.41305
   C       17.87058        -9.06340         0.84376
   C       16.98862        -8.07801         0.56969
   C       15.63779        -8.38905         0.89448
   S       15.53813       -10.00352         1.57613
   C       14.53471        -7.59290         0.71577
   C       14.49033        -6.28393         0.16837
   C       13.24349        -5.75495         0.09869
   C       12.21341        -6.60544         0.58520
   S       12.91828        -8.11718         1.15222
   C       10.87471        -6.33672         0.60463
   C        9.88015        -7.21830         1.08182
   C        8.55528        -6.94700         1.00418
   C        7.49530        -7.80833         1.43886
   C        6.17338        -7.54869         1.15380
   S        5.10797        -8.74445         1.74828
   C        6.44261        -9.64238         2.43854
   C        7.62951        -9.01166         2.18384
   C        6.22969       -10.85753         3.15755
   C        5.04406       -11.49432         3.23799
   C        4.82591       -12.71023         3.95211
   C        3.66366       -13.38780         3.89183
   C        3.36961       -14.62321         4.57031
   C        2.29391       -15.40948         4.22945
   S        2.18477       -16.83380         5.16628
   C        3.59462       -16.37862         6.09514
   C        4.10400       -15.19055         5.64429
   C        4.01858       -17.22770         7.16365
   C        4.89825       -16.89404         8.13031
   C        5.24640       -17.77933         9.19463
   C        5.99610       -17.42110        10.25408
   C        6.33302       -18.28199        11.36056
   C        6.22552       -19.65415        11.37003
   S        6.69899       -20.34741        12.85799
   C        7.05028       -18.77185        13.53389
   C        6.81346       -17.79287        12.60020
   C        7.49016       -18.67991        14.88087
   C        7.71342       -17.52254        15.55834
   C        8.12299       -17.48685        16.90454
   C        8.32018       -16.34469        17.63132
   C        8.71747       -16.26278        18.99232
   C        8.82593       -14.99793        19.47224
   C        8.52220       -13.99051        18.52080
   S        8.09427       -14.72311        16.98518
   C        8.53614       -12.63029        18.70728
   C        8.85926       -11.92730        19.90221
   C        8.78568       -10.58263        19.79684
   C        8.39505       -10.10885        18.49962
   S        8.13140       -11.49648        17.43105
   C        8.23862        -8.83836        18.10435
   H       18.97190       -11.47533         1.65916
   H       17.37191       -12.20417         2.19765
   H       18.92951        -9.01019         0.66233
   H       17.25544        -7.12919         0.13853
   H       15.38136        -5.77819        -0.15809
   H       13.01665        -4.77763        -0.29042
   H       10.55534        -5.38058         0.20955
   H       10.22200        -8.15370         1.50373
   H        8.24139        -6.01549         0.54918
   H        5.77677        -6.71527         0.60758
   H        8.57301        -9.39706         2.52543
   H        7.10394       -11.27292         3.64254
   H        4.19063       -11.07525         2.71844
   H        5.65078       -13.08998         4.53927
   H        2.87081       -13.00794         3.25925
   H        1.57124       -15.22701         3.45833
   H        4.97572       -14.73027         6.07145
   H        3.54780       -18.20219         7.19818
   H        5.34747       -15.91051         8.13846
   H        4.84331       -18.78165         9.13756
   H        6.35897       -16.40386        10.32710
   H        5.91268       -20.29790        10.57275
   H        6.96544       -16.74660        12.79426
   H        7.63331       -19.62067        15.39667
   H        7.56336       -16.57150        15.06600
   H        8.28603       -18.42978        17.41050
   H        8.90685       -17.15141        19.56869
   H        9.11326       -14.75566        20.47973
   H        9.13640       -12.45006        20.80066
   H        8.99433        -9.89004        20.59296
   H        8.40949        -8.02645        18.78904
   H        7.93919        -8.58953        17.10293
*
