# ORCA input file
# SCF done       -145.870425252043          0.000405049242
! CAM-B3LYP def2-SVP def2/J RIJCOSX Grid4 TightSCF
%maxcore 5000
%tddft
    Mode sTDDFT
    Ethresh 5.0
    maxcore 5000
end

%pal
  nprocs 6
  end
* xyz 0 1
   C        4.78102         6.23933         0.82710
   C        5.62674         7.01708         1.56604
   C        6.70383         7.85602         1.17053
   C        7.45862         8.45995         2.12169
   C        7.19967         8.26082         3.50854
   C        6.17127         7.48572         3.94206
   C        5.32875         6.85206         2.99179
   C        4.27253         5.97392         3.09916
   C        3.88378         5.55840         1.73395
   C        2.87851         4.74092         1.39722
   N        3.65046         5.44754         4.20157
   C        3.48769         5.99345         5.43095
   S        3.48496         7.71421         5.67707
   C        3.14306         7.45200         7.36092
   N        3.03330         8.56832         8.18547
   O        2.80349         8.38007         9.36981
   O        3.17661         9.66135         7.65758
   C        3.03393         6.12750         7.69921
   C        3.22904         5.26743         6.60729
   C        3.24066         3.82729         6.65795
   C        3.21303         3.09582         7.78462
   N        3.30018         1.72324         7.86853
   C        3.51392         0.76371         6.91227
   S        2.49982        -0.65256         7.08481
   C        3.29894        -1.40710         5.75062
   N        2.87364        -2.66737         5.32869
   O        3.44741        -3.16589         4.37534
   O        1.94521        -3.17323         5.93667
   C        4.27918        -0.61856         5.22025
   C        4.43202         0.63113         5.86201
   C        5.39079         1.54692         5.30114
   C        5.76578         2.75934         5.74941
   N        6.45371         3.68865         5.00650
   C        6.69557         3.82251         3.66757
   S        8.04587         4.88707         3.34160
   C        7.80855         4.69647         1.64012
   N        8.64007         5.40718         0.77667
   O        8.43466         5.30921        -0.42073
   O        9.52183         6.07841         1.29045
   C        6.77825         3.84938         1.35081
   C        6.10570         3.33421         2.48597
   C        5.02813         2.41130         2.24678
   C        3.96653         2.11378         3.03686
   C        3.04884         1.04437         2.88020
   C        1.84591         0.89771         3.56438
   C        1.15010         1.74263         4.46041
   C       -0.00289         1.30816         5.03623
   C       -0.55004         0.02601         4.74615
   C        0.04741        -0.80589         3.85796
   C        1.25811        -0.39619         3.23425
   C        2.06507        -1.02996         2.33352
   C        3.23980        -0.20543         2.11393
   C        4.33622        -0.66036         1.49324
   H        4.76190         6.13481        -0.23952
   H        6.90915         7.98264         0.11834
   H        8.28977         9.08842         1.84224
   H        7.85329         8.73773         4.22279
   H        6.01321         7.33151         4.99828
   H        2.22259         4.27406         2.11343
   H        2.67136         4.52704         0.36284
   H        3.15922         4.57973         4.02568
   H        2.81901         5.81841         8.70484
   H        3.30995         3.30092         5.72223
   H        3.12031         3.56562         8.75204
   H        2.88044         1.34442         8.70816
   H        4.88259        -0.93986         4.39089
   H        5.81474         1.20917         4.36919
   H        5.54327         3.09950         6.74755
   H        6.95734         4.37372         5.55526
   H        6.49654         3.61719         0.33960
   H        5.08763         1.93522         1.27902
   H        3.79325         2.73394         3.90266
   H        1.52297         2.73055         4.68755
   H       -0.53144         1.94551         5.73025
   H       -1.46186        -0.26632         5.24425
   H       -0.36417        -1.77498         3.62152
   H        1.93430        -2.00942         1.91643
   H        4.32808        -1.63393         1.03115
   H        5.26381        -0.11686         1.45173
*
