# ORCA input file
# SCF done       -217.936942642682          0.000590349024
! CAM-B3LYP def2-SVP def2/J RIJCOSX Grid4 TightSCF
%maxcore 5000
%tddft
    Mode sTDDFT
    Ethresh 5.0
    maxcore 5000
end

%pal
  nprocs 6
  end
* xyz 0 1
   C       -0.96965        -2.34730         4.94394
   C       -0.44326        -1.42114         5.82829
   C       -0.55278        -1.67196         7.19802
   C       -0.01495        -0.73945         8.11987
   N        0.42334         0.01704         8.85874
   C       -1.18426        -2.83385         7.68112
   C       -1.27835        -3.06027         9.07556
   N       -1.36424        -3.26242        10.19934
   C       -1.71355        -3.76563         6.78671
   C       -1.59512        -3.50830         5.43775
   C       -2.05387        -4.33513         4.30276
   O       -2.65200        -5.39273         4.38185
   C       -1.62898        -3.63103         3.09094
   C       -1.01359        -2.37646         3.48009
   C       -0.59506        -1.36316         2.65987
   C       -0.02436        -0.15637         3.12091
   N        0.44299         0.84276         3.43589
   C       -0.70009        -1.35452         1.25153
   N       -0.76373        -1.26849         0.10877
   C       -1.72672        -4.11872         1.80987
   C       -2.31304        -5.29743         1.33198
   C       -2.25583        -5.65067        -0.02548
   C       -2.92088        -6.82797        -0.29283
   C       -3.51586        -7.38630         0.86955
   S       -3.22071        -6.47890         2.27822
   C       -4.19022        -8.56988         0.49639
   C       -4.02281        -8.76617        -0.89346
   C       -3.21761        -7.68348        -1.43194
   C       -2.82614        -7.51114        -2.72651
   C       -3.18906        -8.41778        -3.74577
   N       -3.48377        -9.15100        -4.57629
   C       -2.03008        -6.41790        -3.13093
   N       -1.37886        -5.53372        -3.45950
   C       -4.66626        -9.90335        -1.35693
   C       -5.33361       -10.57560        -0.33740
   S       -5.15018        -9.78643         1.21824
   C       -6.11374       -11.75490        -0.47441
   C       -6.80771       -12.31701         0.62016
   C       -7.64163       -13.47424         0.49093
   N       -8.28706       -13.94634         1.57606
   C       -8.14342       -13.35517         2.71754
   C       -7.31376       -12.20853         2.84642
   N       -6.68313       -11.72629         1.82530
   F       -7.16455       -11.60020         4.01569
   F       -8.79496       -13.84998         3.76193
   C       -7.82511       -14.14592        -0.73802
   C       -7.10763       -13.60913        -1.83372
   C       -6.27149       -12.43670        -1.70493
   N       -5.70380       -12.11578        -2.86908
   S       -6.15902       -13.15697        -3.99579
   N       -7.10265       -14.07391        -3.08450
   C       -8.68765       -15.26849        -0.85176
   C       -8.94216       -16.00359        -2.00567
   C       -9.86396       -17.01470        -1.78368
   C      -10.31872       -17.05737        -0.44593
   S       -9.59678       -15.85320         0.52929
   C      -11.26189       -18.10363        -0.33140
   C      -11.40810       -18.71964        -1.59643
   C      -10.52045       -18.06589        -2.54207
   C      -10.32927       -18.40260        -3.84991
   C      -11.02964       -19.48043        -4.43232
   N      -11.61436       -20.35953        -4.87972
   C       -9.43045       -17.70489        -4.68436
   N       -8.70695       -17.13324        -5.36532
   C      -12.31495       -19.76561        -1.58828
   C      -12.86827       -19.97312        -0.32848
   S      -12.25796       -18.81377         0.84977
   C      -13.84662       -20.90517         0.06449
   C      -14.28156       -22.02350        -0.58818
   C      -15.60916       -22.58571        -0.21946
   O      -16.27697       -22.30018         0.74511
   C      -15.95129       -23.51915        -1.31740
   C      -17.12923       -24.20288        -1.53084
   C      -17.23028       -24.99681        -2.67488
   C      -16.15298       -25.07883        -3.57807
   C      -14.96005       -24.39073        -3.34648
   C      -14.86159       -23.61472        -2.20503
   C      -13.75554       -22.80796        -1.68331
   C      -12.43874       -22.99309        -2.01333
   C      -11.36777       -22.37640        -1.33634
   N      -10.47055       -21.91052        -0.79318
   C      -11.99438       -23.89739        -3.00251
   N      -11.58592       -24.62531        -3.78878
   C      -16.28503       -25.87139        -4.74567
   N      -16.38739       -26.50707        -5.69200
   C      -18.42393       -25.71356        -2.93276
   N      -19.39807       -26.28410        -3.12400
   H        0.05003        -0.52089         5.49858
   H       -2.19930        -4.66261         7.13975
   H       -1.27499        -3.52299         1.02562
   H       -1.74359        -5.04549        -0.75264
   H       -4.67678       -10.25406        -2.37231
   H       -8.46412       -15.77922        -2.94136
   H      -12.60974       -20.32458        -2.45734
   H      -14.39206       -20.67348         0.97453
   H      -17.95056       -24.12429        -0.83490
   H      -14.15703       -24.46737        -4.06255
*
