# ORCA input file
# SCF done       -143.466314933327          0.000852022187
! CAM-B3LYP def2-SVP def2/J RIJCOSX Grid4 TightSCF
%maxcore 5000
%tddft
    Mode sTDDFT
    Ethresh 5.0
    maxcore 5000
end

%pal
  nprocs 6
  end
* xyz 0 1
   C       -0.42878        -0.75710        -3.49505
   N        0.10165        -1.57226        -2.60969
   C        1.22129        -2.18750        -3.00795
   N        1.78602        -2.00903        -4.20909
   C        1.15884        -1.16975        -5.00340
   N        0.04823        -0.51246        -4.70660
   C        1.86149        -3.09428        -2.10637
   C        1.46661        -3.44269        -0.82977
   C        2.34339        -4.36419        -0.26166
   C        3.40684        -4.70650        -1.12567
   S        3.32409        -3.89872        -2.62378
   C        4.24061        -5.64746        -0.47192
   C        3.70171        -5.90145         0.80496
   C        2.49784        -5.10209         0.98023
   C        1.69331        -5.05626         2.08061
   C        1.95239        -5.82510         3.23539
   N        2.15342        -6.44286         4.18028
   C        0.54704        -4.23559         2.14445
   N       -0.38668        -3.57362         2.20896
   C        4.44637        -6.82278         1.52951
   C        5.55157        -7.27095         0.81657
   S        5.67152        -6.53893        -0.77291
   C        6.52209        -8.21235         1.24764
   C        7.61492        -8.55456         0.41726
   C        8.61490        -9.49593         0.81730
   N        9.63311        -9.77560        -0.01442
   C        9.69075        -9.18398        -1.17496
   C        8.70357        -8.25855        -1.57048
   N        7.70380        -7.96401        -0.78696
   C        8.57618       -10.15583         2.06791
   C        7.48644        -9.82161         2.90167
   C        6.47805        -8.86461         2.49942
   N        5.54979        -8.70886         3.44645
   S        5.89670        -9.64855         4.69524
   N        7.23649       -10.30889         4.11938
   C        9.58431       -11.08791         2.42676
   C        9.66610       -11.81945         3.60525
   C       10.78618       -12.63991         3.62864
   C       11.56629       -12.53191         2.46025
   S       10.91306       -11.42199         1.33152
   C       12.67750       -13.40197         2.58731
   C       12.59876       -14.06056         3.83417
   C       11.40644       -13.60305         4.52678
   C       10.95689       -13.99172         5.75442
   C       11.63980       -14.94254         6.54248
   N       12.18425       -15.71479         7.19140
   C        9.77457       -13.47135         6.32282
   N        8.81504       -13.05743         6.79474
   C       13.65907       -14.93942         4.04402
   C       14.52786       -14.94413         2.97060
   S       14.04717       -13.86300         1.68448
   C       15.72623       -15.70827         2.81266
   N       16.41703       -15.54583         1.67693
   C       17.51064       -16.26904         1.57857
   N       17.95843       -17.11612         2.49262
   C       17.20372       -17.20404         3.57796
   N       16.09166       -16.53716         3.79762
   H       -1.33666        -0.24167        -3.20699
   H        1.58860        -1.00219        -5.98339
   H        0.58609        -3.03190        -0.37063
   H        4.22916        -7.17359         2.52155
   H       10.52570        -9.43654        -1.81246
   H        8.73716        -7.76176        -2.52934
   H        8.92878       -11.73102         4.38175
   H       13.81874       -15.55174         4.91260
   H       18.09431       -16.16128         0.67256
   H       17.52974       -17.88571         4.35379
*
