# ORCA input file
# SCF done       -211.410561486583          0.000776373582
! CAM-B3LYP def2-SVP def2/J RIJCOSX Grid4 TightSCF
%maxcore 5000
%tddft
    Mode sTDDFT
    Ethresh 5.0
    maxcore 5000
end

%pal
  nprocs 6
  end
* xyz 0 1
   C       -0.53388         2.97913         6.78371
   C        0.33007         1.99723         6.37562
   C        1.48532         1.61500         7.09068
   N        2.43418         1.25680         7.62771
   C        0.21747         1.24512         5.18672
   N        0.20559         0.60304         4.23487
   C       -0.37563         3.79823         7.98116
   C       -1.41521         4.76105         8.01559
   C       -1.54001         5.68724         9.02265
   C       -0.59320         5.66071        10.05152
   C        0.44160         4.69499        10.01184
   C        0.56811         3.76084         8.99061
   S        1.50000         4.83683        11.38137
   C        0.55218         6.17193        11.98147
   C       -0.50335         6.49709        11.19710
  Br        1.04498         7.00961        13.58469
   C       -2.27932         4.57751         6.84037
   O       -3.25482         5.24851         6.54848
   C       -1.73926         3.42724         6.10643
   C       -2.32268         2.83318         5.01839
   C       -3.48978         3.17547         4.31505
   C       -3.97588         2.38230         3.26798
   C       -5.13736         2.88761         2.71587
   C       -5.53664         4.09672         3.33243
   S       -4.50694         4.58640         4.59710
   C       -6.73078         4.52914         2.70761
   C       -7.09431         3.60236         1.70990
   C       -6.09533         2.54587         1.67288
   C       -6.05035         1.47072         0.83748
   C       -5.02004         0.50771         0.91662
   N       -4.19123        -0.28130         0.98181
   C       -7.00492         1.23312        -0.17645
   N       -7.74984         1.01552        -1.01946
   C       -8.28095         3.93657         1.06160
   C       -8.81197         5.11929         1.55138
   S       -7.83347         5.82264         2.83024
   C      -10.00635         5.76085         1.13866
   C      -10.98735         5.32765         0.27369
   C      -11.28860         4.14543        -0.54865
   O      -10.66827         3.12471        -0.71229
   N      -12.51169         4.43038        -1.15201
   C      -13.17332         3.51640        -2.05037
   C      -13.03278         5.66673        -0.80682
   O      -14.07906         6.12382        -1.20677
   C      -12.05153         6.24464         0.11359
   C      -11.92566         7.40818         0.83455
   S      -10.43007         7.35347         1.75039
   C      -12.79836         8.52001         0.90042
   C      -12.59073         9.68938         1.61594
   C      -13.64892        10.57839         1.46564
   C      -14.66802        10.07005         0.63482
   S      -14.32353         8.51395         0.02790
   C      -15.70528        11.03563         0.56154
   C      -15.33202        12.15385         1.33383
   C      -14.03389        11.89919         1.93399
   C      -13.35274        12.71824         2.78580
   C      -12.09932        12.36333         3.32664
   N      -11.07728        12.07418         3.75758
   C      -13.87307        13.97233         3.16966
   N      -14.31024        14.99003         3.46639
   C      -16.30483        13.14395         1.35982
   C      -17.42976        12.79169         0.62774
   S      -17.24248        11.21941        -0.14101
   C      -18.61954        13.52401         0.41979
   C      -19.11055        14.57695         1.12895
   C      -18.78200        15.15699         2.41562
   C      -18.29877        14.50135         3.51811
   C      -18.13212        15.10684         4.78197
   N      -17.98241        15.54922         5.82988
   C      -18.00462        13.12458         3.55292
   N      -17.77602        12.00253         3.63849
   C      -19.32549        16.51137         2.42745
   C      -20.17783        16.67160         1.30539
   C      -20.14729        15.44135         0.49300
   O      -20.78183        15.18782        -0.50397
   C      -20.87449        17.83217         1.06957
   C      -20.70983        18.88681         1.97370
   C      -19.83843        18.72363         3.07829
   C      -19.14185        17.54658         3.32360
   S      -19.76997        20.15717         4.05573
   C      -20.90182        20.94432         2.98795
   C      -21.30932        20.17555         1.94988
  Br      -21.43600        22.70607         3.34238
   H       -2.34310         6.40737         9.01774
   H        1.37310         3.04565         9.00917
   H       -1.19117         7.29313        11.41654
   H       -1.84394         1.94244         4.62942
   H       -3.47916         1.48068         2.95581
   H       -8.75558         3.36444         0.28340
   H      -12.50893         2.66918        -2.21037
   H      -13.38357         4.01507        -2.99667
   H      -14.11340         3.17491        -1.61486
   H      -11.70853         9.86072         2.20711
   H      -16.19673        14.09504         1.84825
   H      -19.20099        13.25638        -0.45746
   H      -21.52526        17.92473         0.21436
   H      -18.48171        17.46883         4.17159
   H      -22.00349        20.50228         1.19739
*
