# ORCA input file
# SCF done       -196.250552806918          0.000845473490
! CAM-B3LYP def2-SVP def2/J RIJCOSX Grid4 TightSCF
%maxcore 5000
%tddft
    Mode sTDDFT
    Ethresh 5.0
    maxcore 5000
end

%pal
  nprocs 6
  end
* xyz 0 1
   C       -3.09009        -1.77344        -1.02178
   C       -1.76654        -1.72538        -0.67248
   C       -0.83111        -2.73679        -0.98064
   N       -0.02296        -3.52131        -1.20054
   C       -1.14378        -0.69020         0.05785
   N       -0.56434         0.10108         0.65509
   C       -3.73570        -2.87260        -1.73193
   C       -5.12296        -2.59936        -1.83162
   C       -6.00714        -3.45200        -2.44731
   C       -5.49738        -4.63266        -2.99680
   C       -4.10985        -4.89729        -2.89676
   C       -3.21733        -4.03540        -2.27082
   S       -3.69162        -6.40660        -3.64686
   C       -5.36191        -6.66007        -4.07856
   C       -6.19238        -5.66585        -3.68195
  Br       -5.85164        -8.21019        -5.01253
   C       -5.40549        -1.30510        -1.19367
   O       -6.49807        -0.77479        -1.08554
   C       -4.11383        -0.78259        -0.73100
   C       -3.90593         0.45480        -0.18308
   C       -4.81942         1.47824         0.12449
   C       -4.39401         2.71560         0.62203
   C       -5.44650         3.58021         0.85789
   C       -6.69684         2.99409         0.55545
   S       -6.57215         1.40393        -0.03849
   C       -7.70713         3.95506         0.82245
   C       -7.09854         5.14059         1.28201
   C       -5.65989         4.94246         1.32725
   C       -4.71229         5.83930         1.72234
   C       -3.33458         5.53194         1.71243
   N       -2.21396         5.29191         1.70106
   C       -5.04169         7.13900         2.16438
   N       -5.29881         8.19600         2.52518
   C       -8.02366         6.15033         1.54798
   C       -9.31169         5.72391         1.30154
   S       -9.40581         4.07521         0.73989
   C      -10.52518         6.47497         1.44551
   N      -11.67094         5.82878         1.24481
   C      -12.77322         6.56265         1.36957
   N      -12.78137         7.87021         1.64850
   C      -11.59064         8.40310         1.83842
   N      -10.43679         7.77039         1.76485
   C      -14.03170         5.89507         1.20004
   C      -15.29186         6.45449         1.22803
   C      -16.27881         5.48532         1.04890
   C      -15.74315         4.19153         0.89419
   S      -14.03973         4.16914         0.95251
   C      -16.81979         3.27795         0.74833
   C      -18.02990         3.99345         0.79342
   C      -17.72916         5.40507         0.98155
   C      -18.62056         6.43214         1.07006
   C      -18.21418         7.77198         1.25331
   N      -17.89729         8.86418         1.39545
   C      -20.01401         6.22713         0.97123
   N      -21.14516         6.06527         0.88171
   C      -19.14636         3.17409         0.65161
   C      -18.80391         1.83595         0.54732
   S      -17.05779         1.60397         0.56167
   C      -19.71064         0.76249         0.36006
   C      -19.54093        -0.56295         0.60151
   C      -18.55501        -1.30272         1.36439
   C      -17.92130        -0.86684         2.49826
   C      -17.04611        -1.66383         3.26373
   N      -16.31198        -2.26916         3.90515
   C      -18.15041         0.40021         3.07360
   N      -18.34438         1.40744         3.58874
   C      -18.59249        -2.68216         0.89509
   C      -19.72730        -2.84725         0.05978
   C      -20.42215        -1.55285        -0.08390
   O      -21.45064        -1.31871        -0.67198
   C      -20.05875        -4.05759        -0.49983
   C      -19.22786        -5.15047        -0.23105
   C      -18.09099        -4.97133         0.59486
   C      -17.75919        -3.75004         1.16790
   S      -17.20105        -6.45032         0.78665
   C      -18.35278        -7.28021        -0.22636
   C      -19.35250        -6.49090        -0.68739
  Br      -18.12302        -9.10640        -0.58246
   H       -7.05791        -3.21503        -2.50436
   H       -2.17019        -4.28269        -2.22393
   H       -7.25127        -5.66037        -3.86512
   H       -2.88174         0.72475         0.04517
   H       -3.35516         2.94013         0.78841
   H       -7.80487         7.14186         1.89975
   H      -11.55764         9.45835         2.07799
   H      -15.44823         7.50745         1.37470
   H      -20.16746         3.51012         0.65800
   H      -20.65362         1.02934        -0.10903
   H      -20.93265        -4.15947        -1.12380
   H      -16.88150        -3.65613         1.78600
   H      -20.14575        -6.83811        -1.32380
*
