# ORCA input file
# SCF done       -257.777695716894          0.000530811016
! CAM-B3LYP def2-SVP def2/J RIJCOSX Grid4 TightSCF
%maxcore 5000
%tddft
    Mode sTDDFT
    Ethresh 5.0
    maxcore 5000
end

%pal
  nprocs 6
  end
* xyz 0 1
   C       -9.52118        -1.86106         9.48483
   C       -9.32218        -1.21460        10.67654
   C       -9.25737        -1.86711        11.92627
   N       -9.20085        -2.34145        12.96964
   C       -9.11021         0.17322        10.82179
   N       -8.91058         1.28776        11.01247
   C       -9.62591        -3.30231         9.30732
   C       -9.64286        -3.58776         7.91996
   C       -9.72894        -4.86727         7.42634
   C       -9.80386        -5.91676         8.34745
   C       -9.79041        -5.62239         9.73318
   C       -9.70161        -4.32861        10.23118
   S       -9.89952        -7.06502        10.69364
   C       -9.95931        -8.03157         9.24328
   C       -9.90086        -7.31226         8.09674
  Br      -10.09587        -9.89599         9.38011
   C       -9.56348        -2.33220         7.15193
   O       -9.56486        -2.23101         5.94495
   C       -9.56243        -1.24590         8.16729
   C       -9.76305         0.08582         7.94421
   C       -9.71339         0.81011         6.73247
   C       -9.13270         0.51567         5.50610
   C       -9.26051         1.56362         4.60345
   C       -9.95663         2.67211         5.13531
   S      -10.41732         2.43040         6.75260
   C      -10.04495         3.66887         4.13342
   C       -9.38907         3.20485         2.98029
   C       -8.88163         1.86453         3.23288
   C       -8.20362         1.07468         2.35291
   C       -7.71035        -0.20579         2.68670
   N       -7.28079        -1.23649         2.94287
   C       -7.94707         1.51069         1.03470
   N       -7.75884         1.88397        -0.03300
   C       -9.39472         4.13296         1.94478
   C      -10.05193         5.30468         2.28684
   S      -10.67886         5.24070         3.92827
   C      -10.26446         6.41010         1.40089
   C      -10.06643         6.07181        -0.02921
   C       -9.07178         6.69227        -0.78486
   C       -8.84444         6.34463        -2.11120
   C       -9.61628         5.34982        -2.70767
   C      -10.60988         4.71108        -1.96986
   C      -10.81996         5.07320        -0.64390
   F      -11.77998         4.45959         0.05260
   F      -11.35640         3.76530        -2.53406
   F       -9.41133         5.02046        -3.97871
   F       -7.89783         6.96433        -2.81426
   F       -8.33072         7.65324        -0.22927
   C      -10.60152         7.68233         1.77978
   C      -10.56067         8.08140         3.20750
   C       -9.36751         8.04813         3.92893
   C       -9.30618         8.47090         5.25162
   C      -10.45581         8.94610         5.87953
   C      -11.65732         8.99334         5.17652
   C      -11.69592         8.56825         3.85314
   F      -12.85402         8.61133         3.18984
   F      -12.76148         9.43732         5.77123
   F      -10.40707         9.34354         7.14598
   F       -8.15559         8.41764         5.91947
   F       -8.26073         7.58721         3.34214
   C      -10.99213         8.74023         0.89667
   C      -11.00556        10.08577         1.23118
   C      -11.47747        10.88568         0.19631
   C      -11.82819        10.14932        -0.94787
   S      -11.59379         8.47262        -0.73395
   C      -12.25763        11.05268        -1.95026
   C      -12.19108        12.36281        -1.43363
   C      -11.71354        12.29812        -0.06240
   C      -11.53749        13.32657         0.81468
   C      -11.08827        13.09340         2.13256
   N      -10.72676        12.87721         3.19887
   C      -11.79375        14.67003         0.46558
   N      -11.99285        15.76200         0.18140
   C      -12.56823        13.32568        -2.36312
   C      -12.94733        12.76839        -3.57599
   S      -12.79178        11.01410        -3.56418
   C      -13.29140        13.50306        -4.73602
   C      -13.86047        13.09301        -5.89920
   C      -14.56475        11.88706        -6.28490
   C      -15.39780        11.15206        -5.48305
   C      -16.14787        10.04791        -5.93645
   N      -16.76126         9.13427        -6.26123
   C      -15.66211        11.49048        -4.13998
   N      -15.92025        11.76774        -3.05648
   C      -14.47517        11.78150        -7.73578
   C      -13.97753        13.00712        -8.24939
   C      -13.66628        13.91663        -7.12996
   O      -13.28068        15.05966        -7.17912
   C      -13.82368        13.23108        -9.59632
   C      -14.16362        12.19531       -10.47300
   C      -14.64530        10.97058        -9.94797
   C      -14.81134        10.74654        -8.58674
   S      -14.99155         9.82743       -11.20781
   C      -14.49765        10.99264       -12.40769
   C      -14.09164        12.17794       -11.89237
  Br      -14.56256        10.53380       -14.22383
   H       -9.73654        -5.05088         6.36344
   H       -9.70085        -4.15533        11.29429
   H       -9.92597        -7.74650         7.11405
   H      -10.01886         0.69442         8.80408
   H       -8.64464        -0.41855         5.30010
   H       -8.92074         3.98096         0.99272
   H      -10.65849        10.46081         2.17624
   H      -12.59063        14.38530        -2.18249
   H      -12.96674        14.54006        -4.72891
   H      -13.45294        14.17521        -9.96314
   H      -15.17520         9.79759        -8.22831
   H      -13.75442        13.00665       -12.48765
*
