# ORCA input file
# SCF done       -188.029308752883          0.000285159921
! CAM-B3LYP def2-SVP def2/J RIJCOSX Grid4 TightSCF
%maxcore 5000
%tddft
    Mode sTDDFT
    Ethresh 5.0
    maxcore 5000
end

%pal
  nprocs 6
  end
* xyz 0 1
   C        0.89110         0.19190         0.29287
   O        0.92069        -0.49011         1.29252
   C        1.51707         1.52214         0.13460
   C        1.30040         2.00193        -1.16809
   C        1.81986         3.23114        -1.54025
   C        2.54237         3.95967        -0.60208
   C        2.74577         3.47667         0.69315
   C        2.23046         2.24311         1.06937
  Br        3.72781         4.49157         1.94770
  Br        3.25777         5.63320        -1.11172
   C        0.50711         1.02059        -1.90307
   C       -0.01950         1.20665        -3.15350
   C        0.19821         2.36184        -3.93596
   N        0.34475         3.27216        -4.61858
   C       -0.87792         0.30718        -3.82262
   N       -1.59516        -0.36132        -4.42000
   C        0.30705        -0.12578        -1.03203
   C       -0.19080        -1.32955        -1.45290
   C       -0.53422        -2.48041        -0.71778
   C       -0.74079        -2.69407         0.64062
   C       -1.13742        -3.99575         0.91035
   C       -1.22802        -4.80052        -0.24804
   S       -0.85620        -3.94161        -1.66421
   C       -1.61584        -6.10515         0.14213
   C       -1.78412        -6.12803         1.53922
   C       -1.49448        -4.80309         2.06730
   C       -1.56076        -4.40351         3.36811
   C       -1.91214        -5.29256         4.40799
   N       -2.19141        -6.00941         5.25743
   C       -1.30476        -3.07523         3.77594
   N       -1.12344        -2.00071         4.13009
   C       -2.18344        -7.37718         2.01225
   C       -2.30724        -8.29761         0.98935
   S       -1.93344        -7.61928        -0.57974
   C       -2.69993        -9.66996         1.13767
   C       -2.68548       -10.59600         0.08086
   N       -3.06742       -11.83857         0.24527
   C       -3.48043       -12.22077         1.46261
   C       -3.46700       -11.30174         2.52744
   N       -3.08662       -10.05932         2.36231
   C       -3.90348       -13.58398         1.58196
   C       -4.47817       -14.23637         2.65467
   C       -4.74907       -15.57166         2.35538
   C       -4.36492       -15.92322         1.04703
   S       -3.69055       -14.61517         0.18432
   C       -4.67331       -17.29195         0.84562
   C       -5.25286       -17.80507         2.02406
   C       -5.32241       -16.73665         3.00944
   C       -5.81878       -16.81231         4.27689
   C       -6.34690       -18.00890         4.80783
   N       -6.77060       -18.98029         5.24425
   C       -5.82899       -15.69704         5.14203
   N       -5.83269       -14.78965         5.84242
   C       -5.56926       -19.15360         1.92477
   C       -5.26938       -19.67592         0.67263
   S       -4.53582       -18.46364        -0.37743
   C       -5.40891       -21.03170         0.30623
   C       -5.33768       -21.62686        -0.91687
   C       -5.01774       -23.07901        -0.99498
   O       -5.04093       -23.87980        -0.09248
   C       -4.60356       -23.29976        -2.39902
   C       -4.79522       -22.11753        -3.13839
   C       -5.40425       -21.11347        -2.26813
   C       -6.15299       -20.04947        -2.69557
   C       -6.97566       -19.29410        -1.83381
   N       -7.68597       -18.69308        -1.16213
   C       -6.26036       -19.65961        -4.04651
   N       -6.35815       -19.29908        -5.13111
   C       -4.44383       -22.07395        -4.47609
   C       -3.90871       -23.21755        -5.05880
   C       -3.73515       -24.39236        -4.32278
   C       -4.08390       -24.43845        -2.97860
  Br       -3.01715       -25.93481        -5.14455
  Br       -3.40839       -23.15824        -6.87994
   H        1.68767         3.63558        -2.53054
   H        2.38073         1.85590         2.06523
   H       -0.33670        -1.44287        -2.52107
   H       -0.59940        -1.92589         1.37822
   H       -2.37983        -7.63831         3.03573
   H       -2.35488       -10.31968        -0.91186
   H       -3.76489       -11.57949         3.52811
   H       -4.69308       -13.76255         3.59476
   H       -6.01733       -19.74475         2.70306
   H       -5.49765       -21.72175         1.14096
   H       -4.56166       -21.18179        -5.07021
   H       -3.95240       -25.34066        -2.40167
*
