# ORCA input file
# SCF done       -190.878290405124          0.000677711288
! CAM-B3LYP def2-SVP def2/J RIJCOSX Grid4 TightSCF
%maxcore 5000
%tddft
    Mode sTDDFT
    Ethresh 5.0
    maxcore 5000
end

%pal
  nprocs 6
  end
* xyz 0 1
   C       -1.03539        -3.06894         4.22796
   O       -0.60884        -3.46145         5.29547
   N       -2.30539        -2.54215         4.12281
   C       -3.12475        -2.44873         5.32074
   C       -2.89236        -2.08082         2.96123
   O       -4.00805        -1.61851         2.96350
   N       -2.13761        -2.18909         1.81066
   C       -2.74675        -1.76475         0.55978
   C       -0.85320        -2.69391         1.72315
   O       -0.32959        -2.78755         0.63067
   C       -0.23841        -3.10222         2.98584
   C        1.03501        -3.57774         3.15171
   C        2.14656        -3.71140         2.29599
   C        2.41006        -3.27015         1.00472
   C        3.68920        -3.60674         0.58583
   C        4.42195        -4.33047         1.55659
   S        3.53917        -4.56245         2.98729
   C        5.69059        -4.65442         1.02217
   C        5.76635        -4.12928        -0.28680
   C        4.51960        -3.44354        -0.59529
   C        4.21852        -2.76991        -1.74158
   C        5.13044        -2.69415        -2.81652
   N        5.87204        -2.63565        -3.68905
   C        3.00192        -2.07963        -1.93721
   N        2.03662        -1.49000        -2.12112
   C        6.98129        -4.39704        -0.90186
   C        7.82405        -5.12417        -0.06866
   S        7.11109        -5.47919         1.49699
   C        9.12183        -5.58872        -0.33876
   C        9.90408        -6.33531         0.54982
   C       11.19203        -6.69016         0.02484
   N       12.07258        -7.35255         0.77931
   C       11.69257        -7.67844         1.99521
   C       12.69988        -8.35567         2.85512
   O       13.85920        -8.47569         2.52853
   C       12.18512        -8.83924         4.14974
   C       10.95073        -8.58812         4.59759
   C        9.95228        -7.80775         3.84627
   O        8.85780        -7.54207         4.29536
   C       10.38557        -7.37525         2.49318
   N        9.51695        -6.70148         1.77061
   C       11.38760        -6.22044        -1.28235
   S        9.98968        -5.33128        -1.81676
   C       12.52757        -6.41407        -2.08488
   C       13.58531        -7.27620        -1.81308
   C       14.54453        -7.24006        -2.81633
   C       14.23522        -6.32497        -3.84510
   S       12.73807        -5.54185        -3.59648
   C       15.28621        -6.32871        -4.78716
   C       16.26415        -7.26193        -4.36809
   C       15.81964        -7.87444        -3.12640
   C       16.43364        -8.86503        -2.42122
   C       17.69603        -9.39285        -2.77469
   N       18.72735        -9.82829        -3.01925
   C       15.83669        -9.47524        -1.29454
   N       15.34934       -10.01963        -0.41186
   C       17.33327        -7.36159        -5.24766
   C       17.20516        -6.50411        -6.33371
   S       15.70659        -5.56198        -6.24307
   C       18.02503        -6.21752        -7.44293
   C       19.17979        -6.76061        -7.93945
   C       19.86108        -7.95773        -7.44997
   O       19.46598        -8.66349        -6.54337
   N       21.03116        -8.29977        -8.10481
   C       21.59708        -7.63549        -9.17438
   O       22.63314        -7.99709        -9.68022
   N       20.90274        -6.53447        -9.63612
   C       19.72217        -6.05144        -9.11350
   O       19.18873        -5.07993        -9.61034
   C       21.44886        -5.81380       -10.77513
   C       21.70994        -9.48940        -7.61372
   H       -2.53388        -2.81557         6.15612
   H       -4.02503        -3.05005         5.19894
   H       -3.41594        -1.41182         5.48399
   H       -3.70516        -1.30682         0.78814
   H       -2.88463        -2.62696        -0.09284
   H       -2.08859        -1.05427         0.06125
   H        1.22508        -3.90913         4.17119
   H        1.67895        -2.74422         0.41836
   H        7.26403        -4.09797        -1.89530
   H       12.89455        -9.40295         4.74034
   H       10.61968        -8.94239         5.56454
   H       13.61745        -7.87244        -0.91886
   H       18.17487        -8.02123        -5.13784
   H       17.67669        -5.37448        -8.03757
   H       22.39598        -6.27308       -11.04452
   H       21.59249        -4.76791       -10.50551
   H       20.74971        -5.86551       -11.60964
   H       21.88883        -9.38694        -6.54385
   H       22.64789        -9.59193        -8.15245
   H       21.08051       -10.36435        -7.77773
*
