# ORCA input file
# SCF done       -174.959026615628          0.000394302249
! CAM-B3LYP def2-SVP def2/J RIJCOSX Grid4 TightSCF
%maxcore 5000
%tddft
    Mode sTDDFT
    Ethresh 5.0
    maxcore 5000
end

%pal
  nprocs 6
  end
* xyz 0 1
   C       -6.44589         1.20986         5.98885
   C       -6.84330         0.74704         7.23397
   C       -6.65227        -0.57832         7.60029
   C       -6.04889        -1.47795         6.73475
   C       -5.64372        -1.02732         5.48887
   C       -5.84845         0.31993         5.10916
   C       -5.35773         0.50961         3.75185
   C       -5.25802         1.69720         3.08188
   C       -5.63265         2.94516         3.62547
   N       -5.91857         3.98895         4.00709
   C       -4.73509         1.85582         1.77972
   N       -4.31979         2.06758         0.73083
   C       -5.00171        -0.81604         3.25009
   C       -4.96291        -1.71525         4.40424
   C       -4.21400        -2.85131         4.52158
   C       -3.34345        -3.33114         3.51955
   N       -2.58178        -3.73200         2.76003
   C       -4.15704        -3.63527         5.69306
   N       -4.08353        -4.30883         6.61908
   C       -4.88267        -1.14912         1.93990
   C       -4.90907        -2.48067         1.41425
   N       -5.64499        -3.41702         2.00625
   N       -5.64856        -4.64103         1.61838
   C       -5.05631        -5.09598         0.52793
   C       -4.36060        -4.15691        -0.28906
   C       -4.24413        -2.81617         0.20556
   N       -3.50660        -2.04422        -0.58315
   S       -3.02495        -2.91408        -1.84486
   N       -3.72354        -4.31000        -1.44705
   C       -5.16684        -6.50123         0.21200
   C       -4.33935        -7.11795        -0.71558
   C       -4.43530        -8.47473        -0.99083
   C       -5.36216        -9.28424        -0.35044
   C       -6.25029        -8.68430         0.58671
   C       -6.15361        -7.29147         0.86718
   N       -6.99500        -6.74436         1.74966
   C       -7.84009        -7.48274         2.41057
   C       -7.93577        -8.88223         2.13003
   N       -7.17894        -9.41353         1.21291
   C       -8.93520        -9.75588         2.80477
   C       -8.73536        -6.81200         3.39336
   C       -5.45318       -10.70338        -0.60471
   N       -6.09847       -11.46408         0.26241
   N       -6.27432       -12.73118         0.14435
   C       -5.69881       -13.44846        -0.81578
   C       -4.99782       -12.75966        -1.84009
   C       -4.90827       -11.33087        -1.76282
   N       -4.25727       -10.82230        -2.80588
   S       -3.78193       -12.02938        -3.76027
   N       -4.38951       -13.25118        -2.91270
   C       -5.87840       -14.86934        -0.84966
   C       -6.01745       -15.66713         0.23891
   C       -6.57909       -17.01653         0.22949
   C       -6.70335       -17.84837        -0.84825
   C       -6.25381       -17.55907        -2.15530
   N       -5.91249       -17.40055        -3.23959
   C       -7.27026       -19.14002        -0.78832
   N       -7.71927       -20.19590        -0.80682
   C       -6.99175       -17.30201         1.59595
   C       -6.54960       -16.25547         2.43882
   C       -6.83700       -16.27226         3.79400
   C       -7.56082       -17.33918         4.30415
   C       -7.98561       -18.37300         3.48069
   C       -7.70792       -18.36641         2.12227
   C       -5.79382       -15.30540         1.63946
   C       -4.86045       -14.42680         2.11075
   C       -4.63263       -14.18588         3.48219
   N       -4.41116       -13.95297         4.58360
   C       -3.95458       -13.71854         1.29248
   N       -3.16245       -13.16031         0.67702
   H       -6.60809         2.24032         5.71838
   H       -7.31228         1.42998         7.92569
   H       -6.97809        -0.91564         8.57236
   H       -5.91193        -2.50668         7.02587
   H       -4.82515        -0.37189         1.19073
   H       -3.58644        -6.52900        -1.21520
   H       -3.75595        -8.92004        -1.70041
   H       -8.76766        -9.75626         3.88055
   H       -8.83508       -10.76708         2.42163
   H       -9.94634        -9.39514         2.62186
   H       -8.59345        -7.24124         4.38385
   H       -9.77975        -6.94553         3.11526
   H       -8.49847        -5.75253         3.42010
   H       -5.97017       -15.28908        -1.84158
   H       -6.51856       -15.47050         4.44021
   H       -7.79717       -17.36384         5.35693
   H       -8.54517       -19.19471         3.90083
   H       -8.05152       -19.17375         1.49662
*
