# ORCA input file
# SCF done       -184.832312300025          0.000566288607
! CAM-B3LYP def2-SVP def2/J RIJCOSX Grid4 TightSCF
%maxcore 5000
%tddft
    Mode sTDDFT
    Ethresh 5.0
    maxcore 5000
end

%pal
  nprocs 6
  end
* xyz 0 1
   C       -0.95066         2.22284         6.00024
   C        0.07121         3.09260         5.71805
   C        1.36507         2.99521         6.27152
   N        2.43221         2.97187         6.69391
   C       -0.00593         4.17634         4.81802
   N        0.01635         5.06335         4.08885
   C       -0.84679         1.04338         6.85015
   C       -2.06268         0.32274         6.77218
   C       -2.27954        -0.84688         7.45898
   C       -1.24432        -1.32877         8.26629
   C       -0.03367        -0.59894         8.34451
   C        0.18510         0.58280         7.64722
   S        1.10653        -1.36643         9.40728
   C       -0.04112        -2.64037         9.72553
   C       -1.21842        -2.50033         9.07107
  Br        0.42224        -4.03184        10.89375
   C       -3.00236         1.02742         5.87936
   O       -4.13709         0.68277         5.62944
   C       -2.29326         2.25728         5.44751
   C       -2.84598         3.34018         4.81992
   C       -4.09675         3.45155         4.18016
   C       -4.95947         2.49022         3.66910
   C       -6.09832         3.05387         3.11120
   C       -6.11972         4.46386         3.19316
   S       -4.71462         5.08901         3.91495
   C       -7.35078         4.92831         2.66791
   C       -8.10376         3.81402         2.24576
   C       -7.33358         2.60475         2.48877
   C       -7.69028         1.32345         2.18947
   C       -6.84471         0.21804         2.42869
   N       -6.16940        -0.69401         2.58993
   C       -8.93057         1.00854         1.59325
   N       -9.93641         0.74024         1.11290
   C       -9.35646         4.17062         1.74981
   C       -9.54674         5.53759         1.80127
   S       -8.18040         6.40627         2.44854
   C      -10.72792         6.25953         1.44205
   N      -11.78744         5.56723         0.98074
   C      -12.88380         6.24908         0.80053
   C      -12.94713         7.62246         1.14296
   N      -11.80050         8.25595         1.43918
   N      -10.70886         7.58813         1.56512
   C      -14.15511         8.37519         1.17347
   S      -15.70611         7.60873         0.88711
   C      -16.49479         9.09786         1.19090
   C      -15.60387        10.13397         1.48378
   C      -14.28080         9.72163         1.47555
   C      -16.35146        11.41805         1.75806
   C      -16.08034        11.92677         3.17631
   C      -16.00650        12.49193         0.72206
   C      -17.77847        10.94459         1.60447
   C      -17.81645         9.59036         1.26402
   S      -19.41627         9.00060         1.09643
   C      -20.05496        10.58399         1.49942
   C      -19.04064        11.50328         1.73519
   C      -21.46187        10.74368         1.56744
   C      -22.09884        11.89105         1.90890
   C      -23.50700        12.03059         2.01211
   C      -24.50639        11.09418         1.80328
   C      -25.77664        11.62133         2.03083
   C      -25.75344        12.96950         2.41502
   S      -24.16639        13.58889         2.49455
   C      -27.09321        13.40079         2.62725
   C      -27.95496        12.32558         2.37737
   C      -27.16489        11.17201         1.99429
   C      -27.61416         9.92504         1.67021
   C      -26.73529         8.88115         1.31405
   N      -26.02107         8.03155         1.02517
   C      -28.98565         9.59542         1.66998
   N      -30.09911         9.32068         1.66828
   C      -29.30840        12.66599         2.56818
   C      -29.44367        13.96512         2.95077
   S      -27.93619        14.81089         3.09030
   H       -3.21766        -1.37244         7.37394
   H        1.12269         1.10395         7.74455
   H       -2.03648        -3.19260         9.15155
   H       -2.27872         4.26364         4.84075
   H       -4.75353         1.43754         3.71248
   H      -10.10904         3.50064         1.37673
   H      -13.73033         5.72751         0.37247
   H      -13.41989        10.33106         1.67918
   H      -15.03071        12.18779         3.28374
   H      -16.32566        11.15935         3.90700
   H      -16.68445        12.80747         3.37936
   H      -14.95373        12.75286         0.79318
   H      -16.60303        13.38398         0.89608
   H      -16.20868        12.12748        -0.28258
   H      -19.23077        12.52832         1.99456
   H      -22.04374         9.86181         1.33987
   H      -21.52164        12.77611         2.13623
   H      -24.31178        10.08162         1.50299
   H      -30.13606        11.99420         2.43212
   H      -30.34880        14.49677         3.16582
*
