# ORCA input file
# SCF done       -227.026631039801          0.000368330960
! CAM-B3LYP def2-SVP def2/J RIJCOSX Grid4 TightSCF
%maxcore 5000
%tddft
    Mode sTDDFT
    Ethresh 5.0
    maxcore 5000
end

%pal
  nprocs 6
  end
* xyz 0 1
   C       -5.42978        -2.07677         0.61028
   C       -4.25440        -2.48308         0.03329
   C       -3.79297        -3.81759         0.03720
   N       -3.35499        -4.87806        -0.00191
   C       -3.30324        -1.67625        -0.62872
   N       -2.45753        -1.12246        -1.17554
   C       -6.33662        -2.95722         1.33550
   C       -7.37949        -2.17501         1.88221
   C       -8.39617        -2.70961         2.63600
   C       -8.38560        -4.08969         2.85855
   C       -7.34245        -4.86782         2.30196
   C       -6.31416        -4.32505         1.54240
   S       -7.52279        -6.55144         2.69319
   C       -8.97523        -6.19136         3.58820
   C       -9.31061        -4.87936         3.59466
  Br       -9.91238        -7.58122         4.42956
   C       -7.18897        -0.75976         1.51192
   O       -7.92244         0.14479         1.85641
   C       -5.97411        -0.72056         0.66255
   C       -5.42022         0.30576        -0.04962
   C       -5.69821         1.70154        -0.19161
   C       -6.66699         2.41612         0.53643
   C       -6.82126         3.76040         0.31303
   C       -6.02823         4.43581        -0.63109
   C       -5.06383         3.74575        -1.35786
   C       -4.90665         2.39814        -1.13143
   C       -6.39859         5.83084        -0.62805
   C       -7.42915         6.02104         0.31181
   C       -7.80736         4.70936         0.96076
   C       -9.22738         4.24201         0.56357
   C      -10.37194         5.15666         0.98051
   C       -7.63462         4.74899         2.48767
   C       -6.20682         5.08270         2.90478
   C       -7.91810         7.28255         0.55269
   C       -7.41207         8.37211        -0.16994
   C       -6.38973         8.16578        -1.10189
   C       -5.87804         6.90614        -1.33439
   C       -7.95343         9.70482         0.05471
   C       -9.26561         9.92302         0.35735
   C       -9.84994        11.18106         0.56640
   C       -9.05367        12.40767         0.39667
   C       -7.73469        12.42432         0.10975
   S       -6.78929        11.01109        -0.10918
   C       -9.96812        13.48038         0.57342
   C      -11.23982        12.96871         0.82531
   C      -12.19690        13.99017         1.01350
   C      -11.63925        15.22362         0.89773
   S       -9.94026        15.20036         0.56131
   C      -11.17667        11.52909         0.84026
   C      -12.32263        10.71624         1.08669
   C      -12.34609         9.44653         1.54295
   C      -13.54222         8.67436         1.78413
   C      -13.46613         7.55435         2.62897
   C      -14.60051         6.83849         2.92520
   C      -15.82564         7.17901         2.32226
   C      -15.90903         8.26173         1.45708
   C      -14.77632         9.00556         1.20707
   C      -16.83217         6.23622         2.74656
   C      -16.23416         5.31144         3.62221
   C      -14.77536         5.64935         3.84382
   C      -13.84376         4.48604         3.47439
   C      -14.07281         3.99195         2.05057
   C      -14.63601         6.04378         5.33434
   C      -13.29713         6.63971         5.74644
   C      -16.98305         4.32424         4.20738
   C      -18.35471         4.23315         3.91476
   C      -18.92077         5.11646         2.98494
   C      -18.17656         6.12755         2.41630
   C      -19.19099         3.24666         4.54022
   C      -19.07145         2.70515         5.77826
   C      -18.24709         3.05855         6.91903
   C      -17.79631         4.31129         7.24311
   C      -17.01878         4.59695         8.38288
   N      -16.35149         4.87553         9.27488
   C      -18.11781         5.48143         6.52322
   N      -18.39998         6.48402         6.04118
   C      -18.20766         1.89690         7.80066
   C      -19.16402         0.95171         7.35031
   C      -19.79760         1.45048         6.11209
   O      -20.68529         0.93265         5.47421
   C      -19.40322        -0.22740         8.01336
   C      -18.65721        -0.49133         9.16686
   C      -17.69345         0.45131         9.59841
   C      -17.45650         1.64799         8.93386
   S      -16.87976        -0.08040        11.03883
   C      -17.83699        -1.53815        11.04610
   C      -18.71824        -1.62593        10.02191
  Br      -17.57920        -2.80657        12.40373
   H       -9.17452        -2.08141         3.04000
   H       -5.54651        -4.96397         1.14030
   H      -10.17394        -4.48315         4.09721
   H       -4.57927         0.00639        -0.66461
   H       -7.27488         1.90688         1.26337
   H       -4.44744         4.25649        -2.08199
   H       -4.15570         1.85289        -1.68520
   H       -9.38078         3.25449         1.00348
   H       -9.25147         4.12610        -0.52332
   H      -10.37180         5.32781         2.05371
   H      -11.31845         4.69135         0.71538
   H      -10.31488         6.11265         0.46689
   H       -7.91442         3.77541         2.89428
   H       -8.30868         5.49779         2.90561
   H       -5.51091         4.33376         2.53361
   H       -6.13163         5.11255         3.98929
   H       -5.90753         6.05261         2.51258
   H       -8.65684         7.45355         1.31974
   H       -6.00402         9.01052        -1.65351
   H       -5.08434         6.76255        -2.05156
   H       -9.91355         9.05897         0.37791
   H       -7.17639        13.34040        -0.00268
   H      -13.23881        13.82991         1.22477
   H      -12.12418        16.17572         0.99138
   H      -13.26452        11.22738         0.93233
   H      -11.42069         8.96762         1.83240
   H      -12.50802         7.27842         3.04444
   H      -16.84685         8.51719         0.98700
   H      -14.83634         9.84409         0.53041
   H      -14.00675         3.66466         4.17570
   H      -12.80797         4.81235         3.57552
   H      -15.09014         3.62644         1.92838
   H      -13.38594         3.18082         1.81914
   H      -13.91288         4.79774         1.33716
   H      -14.82256         5.14845         5.93318
   H      -15.42624         6.76278         5.56600
   H      -12.47430         5.96856         5.51310
   H      -13.29984         6.80891         6.82092
   H      -13.12982         7.59419         5.25531
   H      -16.52873         3.59750         4.86620
   H      -19.97216         5.02456         2.75578
   H      -18.63357         6.82465         1.73081
   H      -20.00356         2.84752         3.94069
   H      -20.14524        -0.92380         7.65560
   H      -16.71080         2.33552         9.29767
   H      -19.38513        -2.45548         9.87354
*
