# ORCA input file
# SCF done       -176.787224244353          0.000543980468
! CAM-B3LYP def2-SVP def2/J RIJCOSX Grid4 TightSCF
%maxcore 5000
%tddft
    Mode sTDDFT
    Ethresh 5.0
    maxcore 5000
end

%pal
  nprocs 6
  end
* xyz 0 1
   C       -1.48263         8.73318        -4.48858
   C       -1.25946         7.39086        -4.51512
   C       -1.42195         6.81808        -3.23850
   C       -1.76946         7.76329        -2.26928
   S       -1.89557         9.33710        -2.91622
   C       -1.91050         7.09780        -1.01410
   C       -1.65340         5.73794        -1.20495
   C       -1.34305         5.51126        -2.60811
   C       -1.05208         4.31698        -3.20225
   C       -1.04241         3.09863        -2.49124
   N       -1.04847         2.09444        -1.93667
   C       -0.75928         4.21520        -4.57751
   N       -0.52120         4.12497        -5.69613
   C       -1.75235         4.99168        -0.02266
   C       -2.07982         5.77807         1.05340
   S       -2.28183         7.46317         0.61224
   C       -2.27079         5.36989         2.41691
   C       -3.00493         5.99907         3.38840
   O       -2.98238         5.30194         4.53288
   C       -2.24269         4.20659         4.31760
   C       -1.76767         4.17654         3.03743
   C       -0.82748         3.19424         2.44685
   O        0.19829         3.54362         1.88806
   C       -1.20710         1.80293         2.57466
   C       -0.49887         0.71508         2.10721
   C       -1.12492        -0.50505         2.34348
   C       -2.34047        -0.38040         2.99007
   S       -2.69829         1.29523         3.30471
   C       -3.26543        -1.36538         3.44651
   S       -4.74668        -0.79482         4.15765
   C       -5.26913        -2.40783         4.54463
   C       -4.30094        -3.33102         4.17463
   C       -3.19997        -2.75172         3.50802
   C       -2.09787        -3.57354         2.88956
   N       -1.92080        -3.18745         1.49376
   C       -2.38605        -5.07662         3.03323
   C       -2.93493        -5.39287         4.41174
   C       -4.33888        -4.78675         4.56387
   N       -4.86213        -4.92350         5.91547
   C       -6.57817        -2.52576         5.08579
   C       -7.33687        -3.64346         5.16195
   C       -8.66502        -3.64882         5.65432
   S       -9.42100        -2.20716         6.26243
   C      -10.90566        -3.05407         6.62284
   C      -10.77726        -4.40982         6.32157
   C       -9.53631        -4.72888         5.74639
   C       -9.18247        -6.10945         5.25477
   N       -8.47511        -6.03953         3.98042
   C      -10.45087        -6.97230         5.18143
   C      -11.22962        -6.86325         6.48048
   C      -11.81760        -5.45184         6.64490
   N      -12.34474        -5.22286         7.98241
   C      -11.97317        -2.25149         7.08503
   C      -13.28879        -2.59060         7.19876
   C      -14.27672        -1.69388         7.63105
   C      -15.60825        -2.01204         7.71847
   C      -16.66768        -1.17389         8.14559
   C      -17.89520        -1.75800         8.11832
   C      -17.88404        -3.09990         7.66355
   S      -16.24566        -3.59214         7.28066
   C      -18.95516        -3.94802         7.51072
   C      -20.32402        -3.67307         7.77699
   C      -21.16191        -4.70313         7.52231
   C      -20.51641        -5.88572         7.03014
   S      -18.77381        -5.59065         6.91983
   C      -21.08486        -7.05112         6.69067
   H       -1.43090         9.42593        -5.30435
   H       -0.99271         6.84736        -5.40302
   H       -1.59531         3.93167         0.04516
   H       -3.56628         6.91224         3.36686
   H       -2.09302         3.53931         5.14299
   H        0.44506         0.82956         1.60515
   H       -0.74189        -1.44988         2.01331
   H       -1.15456        -3.34048         3.40613
   H       -2.80072        -3.25899         0.99491
   H       -1.25500        -3.80727         1.04461
   H       -1.46757        -5.63715         2.84358
   H       -3.12328        -5.37147         2.27997
   H       -2.27441        -4.97157         5.17540
   H       -2.98775        -6.47348         4.56596
   H       -5.02887        -5.32587         3.89838
   H       -4.29722        -4.39018         6.56692
   H       -4.83993        -5.89618         6.19971
   H       -7.01916        -1.58496         5.39743
   H       -6.96560        -4.59486         4.82605
   H       -8.48255        -6.56637         5.97079
   H       -9.03983        -5.54535         3.29709
   H       -8.31287        -6.97769         3.62949
   H      -10.17336        -8.01149         4.98639
   H      -11.07481        -6.62576         4.35206
   H      -10.55983        -7.07208         7.32055
   H      -12.04142        -7.59422         6.50565
   H      -12.65902        -5.34224         5.94462
   H      -11.60175        -5.28716         8.66919
   H      -13.04771        -5.91748         8.20756
   H      -11.69526        -1.22885         7.31445
   H      -13.61334        -3.58825         6.95633
   H      -13.98422        -0.69040         7.91302
   H      -16.48329        -0.16132         8.45997
   H      -18.80632        -1.26601         8.40851
   H      -20.63906        -2.71426         8.14952
   H      -22.22811        -4.67893         7.66227
   H      -22.14880        -7.18656         6.77203
   H      -20.50439        -7.87928         6.32797
*
