# ORCA input file
# SCF done       -228.548903884209          0.000338250712
! CAM-B3LYP def2-SVP def2/J RIJCOSX Grid4 TightSCF
%maxcore 5000
%tddft
    Mode sTDDFT
    Ethresh 5.0
    maxcore 5000
end

%pal
  nprocs 6
  end
* xyz 0 1
   C       -1.28491        -1.94530         9.76958
   C       -1.02005        -2.39565        11.03271
   F       -0.66948        -1.53316        11.99538
   C       -1.11169        -3.76816        11.33889
   F       -0.84594        -4.18187        12.58526
   C       -1.46796        -4.67186        10.37729
   C       -1.74746        -4.23853         9.06690
   C       -1.65414        -2.85128         8.75532
   C       -1.92875        -2.39230         7.44597
   C       -2.28675        -3.29257         6.47774
   C       -2.37989        -4.67511         6.80086
   C       -2.11998        -5.14965         8.05382
   C       -2.78567        -5.42173         5.59938
   O       -2.95591        -6.62796         5.52469
   C       -2.94174        -4.43255         4.53096
   C       -2.62492        -3.12156         5.06517
   C       -2.62639        -1.92423         4.39754
   C       -2.94364        -1.73649         3.03569
   N       -3.18542        -1.49767         1.93864
   C       -2.29859        -0.68829         4.99448
   N       -2.04335         0.34746         5.41844
   C       -3.33550        -4.70757         3.24324
   C       -3.67273        -5.92450         2.63782
   C       -4.07748        -5.99380         1.29682
   C       -4.37722        -7.28026         0.89820
   C       -4.19636        -8.22014         1.94457
   S       -3.66597        -7.51725         3.40154
   C       -4.53630        -9.49649         1.44460
   C       -4.93257        -9.37811         0.09921
   C       -4.83984        -7.97927        -0.29048
   C       -5.12664        -7.44576        -1.51187
   C       -5.56891        -8.24164        -2.58993
   N       -5.92743        -8.88974        -3.46515
   C       -4.99920        -6.06616        -1.78129
   N       -4.89934        -4.94702        -2.00773
   C       -5.29956       -10.59440        -0.47049
   C       -5.18419       -11.64300         0.42828
   S       -4.61037       -11.11149         2.00205
   C       -5.47835       -13.00829         0.20445
   C       -5.32944       -14.06112         1.09640
   C       -5.72470       -15.27172         0.55045
   C       -6.18305       -15.14821        -0.76407
   S       -6.12163       -13.53404        -1.34016
   C       -6.57344       -16.41978        -1.23515
   C       -6.36019       -17.36488        -0.22777
   C       -5.79670       -16.70851         1.01076
   C       -6.74733       -16.86374         2.20140
   C       -4.40766       -17.25526         1.35149
   C       -6.72439       -18.64725        -0.60503
   C       -7.22545       -18.69107        -1.90050
   S       -7.23362       -17.11012        -2.65807
   C       -7.70818       -19.82624        -2.59534
   C       -7.70149       -21.14344        -2.15532
   C       -8.27577       -22.00485        -3.08387
   C       -8.72844       -21.34467        -4.24101
   S       -8.43480       -19.66130        -4.18357
   C       -9.31683       -22.29686        -5.10099
   C       -9.22493       -23.57113        -4.49890
   C       -8.56735       -23.42709        -3.21329
   C       -8.28197       -24.40767        -2.30929
   C       -8.59817       -25.76322        -2.54169
   N       -8.84225       -26.86714        -2.73066
   C       -7.64235       -24.12711        -1.08370
   N       -7.12143       -23.89340        -0.08920
   C       -9.78633       -24.57519        -5.27874
   C      -10.35104       -24.08383        -6.44674
   S      -10.10985       -22.34052        -6.60419
   C      -10.97980       -24.84838        -7.45286
   C      -11.82642       -24.43669        -8.43858
   C      -11.99290       -25.26553        -9.66324
   O      -11.62937       -26.40737        -9.82163
   C      -12.63313       -24.36928       -10.64963
   C      -12.89906       -24.59437       -11.96930
   C      -13.49911       -23.56821       -12.73385
   C      -13.80610       -22.32155       -12.11486
   C      -14.39601       -21.29990       -12.88574
   C      -14.67294       -21.50733       -14.20780
   C      -14.37199       -22.74141       -14.81840
   C      -13.79728       -23.75097       -14.09823
   F      -14.65398       -22.91664       -16.11637
   F      -15.23484       -20.53559       -14.93847
   C      -13.52711       -22.12004       -10.74372
   C      -12.95632       -23.13260       -10.02125
   C      -12.60180       -23.22788        -8.60798
   C      -13.15630       -22.47398        -7.60554
   C      -13.02308       -22.78579        -6.23719
   N      -12.96748       -23.03466        -5.11767
   C      -13.99292       -21.36321        -7.83252
   N      -14.66314       -20.44112        -7.96680
   H       -1.20975        -0.89126         9.55228
   H       -1.53400        -5.71913        10.62750
   H       -1.84856        -1.33640         7.24589
   H       -2.19839        -6.20453         8.26879
   H       -3.41363        -3.86555         2.56618
   H       -4.14037        -5.11879         0.67401
   H       -5.63604       -10.73303        -1.48222
   H       -4.94726       -13.92021         2.09164
   H       -7.73322       -16.47827         1.95185
   H       -6.36443       -16.31498         3.05793
   H       -6.84052       -17.91286         2.46945
   H       -3.73597       -17.13846         0.50413
   H       -4.47401       -18.31088         1.60141
   H       -3.99430       -16.71847         2.20143
   H       -6.64623       -19.51820         0.01864
   H       -7.29614       -21.44421        -1.20761
   H       -9.82932       -25.61591        -5.01225
   H      -10.69314       -25.89514        -7.49335
   H      -12.65617       -25.54226       -12.42479
   H      -14.63666       -20.35098       -12.43245
   H      -13.57308       -24.68940       -14.58069
   H      -13.76260       -21.16585       -10.29967
*
