# ORCA input file
# SCF done       -196.786655139654          0.000425833014
! CAM-B3LYP def2-SVP def2/J RIJCOSX Grid4 TightSCF
%maxcore 5000
%tddft
    Mode sTDDFT
    Ethresh 5.0
    maxcore 5000
end

%pal
  nprocs 6
  end
* xyz 0 1
   C      -10.67192        -5.32834         1.04053
   C      -11.71135        -4.61378         1.60823
   C      -13.00548        -5.13405         1.51493
   C      -14.08508        -4.42144         2.09094
   N      -14.95356        -3.84100         2.56032
   C      -13.25488        -6.35531         0.86230
   C      -14.57493        -6.85610         0.77343
   N      -15.63454        -7.28258         0.68547
   C      -12.19872        -7.07823         0.30234
   C      -10.92961        -6.55317         0.39771
   C       -9.65443        -7.13398        -0.09015
   O       -9.51353        -8.24561        -0.56115
   C       -8.61994        -6.14938         0.26502
   C       -9.23621        -5.05059         0.95119
   C       -8.62332        -3.88985         1.36315
   C       -9.28670        -2.83326         2.01583
   N       -9.77655        -1.94669         2.55718
   C       -7.26140        -3.59666         1.15366
   N       -6.16701        -3.28779         0.98888
   C       -7.26213        -6.36138         0.09892
   C       -6.69033        -7.29928        -0.75889
   S       -5.18133        -8.02485        -0.28200
   C       -5.28228        -9.25207        -1.50124
   C       -6.39281        -9.02510        -2.35842
   C       -7.15033        -7.88019        -1.96184
   C       -8.20042        -7.38352        -2.76774
   C       -8.79353        -6.06748        -2.54569
   C      -10.07701        -5.78021        -2.72013
   C       -8.57796        -8.14596        -3.85392
   C       -7.89747        -9.31217        -4.19463
   C       -6.78573        -9.75243        -3.50783
   C       -6.04932       -10.94522        -4.03295
   C       -4.34876       -10.30376        -1.48557
   C       -3.23911       -10.33210        -0.68871
   C       -2.33057       -11.40564        -0.61585
   N       -1.20261       -11.33142         0.17988
   C       -0.52376       -12.50250         0.08575
   C        0.59695       -13.18847         0.52755
   C        0.54592       -14.45400        -0.08449
   N       -0.57911       -14.52668        -0.88381
   C       -1.24942       -13.34982        -0.80057
   C       -2.37061       -12.66598        -1.24114
   C        1.42062       -15.55248         0.03180
   C        2.57421       -15.56247         0.76089
   C        3.40138       -16.68920         0.91425
   S        2.88071       -18.25274         0.39355
   C        4.30431       -19.04406         1.01703
   C        5.10078       -18.12246         1.74606
   C        4.64880       -16.77629         1.57594
   C        5.42010       -15.69239         2.06142
   C        5.14936       -14.30277         1.69551
   C        5.24351       -13.27694         2.53060
   C        6.51349       -15.99380         2.84789
   C        6.82372       -17.30943         3.18529
   C        6.14729       -18.38930         2.65690
   C        6.48803       -19.75685         3.16688
   C        4.51177       -20.35047         0.56600
   C        5.72178       -20.99105         0.43692
   C        5.82780       -22.26662        -0.11322
   C        6.97877       -22.97009        -0.40148
   C        6.89216       -24.42887        -0.60385
   O        5.89000       -25.09696        -0.73828
   C        8.29368       -24.91509        -0.55943
   C        8.75763       -26.21078        -0.60951
   C       10.13462       -26.42226        -0.50486
   C       11.00578       -25.32835        -0.34968
   C       10.52347       -24.01715        -0.31261
   C        9.15972       -23.81298        -0.42243
   C        8.36041       -22.58130        -0.44752
   C        8.88042       -21.32810        -0.67840
   C        8.12683       -20.18505        -1.01202
   N        7.58890       -19.22357        -1.33773
   C       10.25983       -21.04310        -0.71628
   N       11.36806       -20.74164        -0.72865
   C       12.39748       -25.55932        -0.22468
   N       13.52383       -25.73620        -0.11838
   C       10.65178       -27.73851        -0.54749
   N       11.04870       -28.81244        -0.58317
   H      -11.55736        -3.67758         2.12094
   H      -12.37196        -8.02112        -0.19374
   H       -6.57809        -5.83207         0.75157
   H       -8.10056        -5.29303        -2.23826
   H      -10.79520        -6.53528        -2.99327
   H      -10.45956        -4.78355        -2.57784
   H       -9.38508        -7.80348        -4.48329
   H       -8.22576        -9.86305        -5.06395
   H       -6.47417       -11.24873        -4.98698
   H       -6.13698       -11.78747        -3.34693
   H       -4.99555       -10.71743        -4.18611
   H       -4.53078       -11.14801        -2.12503
   H       -3.02527        -9.47426        -0.06268
   H       -0.94928       -10.53029         0.73231
   H        1.35575       -12.85109         1.20355
   H       -0.83776       -15.33099        -1.42903
   H       -3.13133       -13.01053        -1.91120
   H        1.14307       -16.44998        -0.50830
   H        2.87201       -14.66787         1.28527
   H        4.90931       -14.13580         0.65244
   H        5.46311       -13.41395         3.57635
   H        5.08653       -12.26350         2.20298
   H        7.13194       -15.19153         3.21985
   H        7.63103       -17.49161         3.87968
   H        5.69983       -20.47385         2.95886
   H        7.42075       -20.12032         2.73637
   H        6.63412       -19.70403         4.24511
   H        3.64106       -20.84220         0.14641
   H        6.61534       -20.47039         0.73258
   H        4.91053       -22.82439        -0.27290
   H        8.07578       -27.03966        -0.72465
   H       11.22215       -23.20476        -0.19020
*
