# ORCA input file
# SCF done       -205.917892838608          0.000821640640
! CAM-B3LYP def2-SVP def2/J RIJCOSX Grid4 TightSCF
%maxcore 5000
%tddft
    Mode sTDDFT
    Ethresh 5.0
    maxcore 5000
end

%pal
  nprocs 6
  end
* xyz 0 1
   C       -6.35850         1.46774        -0.36264
   N       -7.39629         0.99087         0.33898
   C       -7.10293        -0.12428         0.91518
   C       -7.35311        -0.78525         2.08816
   C       -5.16603         0.80248        -0.29325
   S       -5.47663        -0.84957         0.25758
   N       -5.12659        -1.46981         1.74619
   C       -6.22703        -1.53435         2.49277
   C       -6.14261        -2.34342         3.68675
   C       -7.18060        -2.62477         4.48630
   C       -7.08826        -3.48859         5.64549
   C       -6.02705        -3.45873         6.55897
   C       -4.90009        -2.49782         6.68640
   O       -4.66437        -1.51143         6.03765
   N       -4.14875        -2.94197         7.77996
   C       -4.71012        -4.06930         8.38997
   O       -4.24589        -4.64199         9.34003
   C       -5.94124        -4.36201         7.62452
   C       -6.90379        -5.32294         7.86744
   C       -7.98909        -5.33036         6.99993
   C       -8.08714        -4.44609         5.92285
   C       -9.30121        -4.62880         5.11169
   O       -9.63961        -4.03760         4.12818
   S      -10.29455        -5.95080         5.82645
   C       -9.11738        -6.26863         7.14268
   O       -9.26568        -7.11041         7.97644
   C       -2.96030        -2.40041         8.26705
   C       -2.41850        -1.24155         7.88011
   C       -1.17227        -0.69811         8.37962
   C       -0.89592         0.63322         8.15298
   C        0.30868         1.19805         8.61077
   C        0.80761         2.49616         8.51849
   C        0.10000         3.65380         7.90918
   C       -0.52847         4.57640         8.98076
   N        0.47341         5.07886         9.90538
   C        0.97309         4.49300         6.95984
   N        0.10812         5.22620         6.05092
   C        2.10835         2.48603         9.14604
   C        3.01127         3.46608         9.34864
   C        4.30675         3.19823        10.03194
   C        4.50668         1.79011        10.47651
   C        3.59061         0.82265        10.27194
   C        2.37559         1.12191         9.61689
   C        1.26785         0.35081         9.29646
   C        0.96417        -1.00891         9.51369
   C       -0.22206        -1.50982         9.07331
   C        4.47589         4.20855        11.13962
   C        4.43047         3.89782        12.42996
   C        4.58417         4.85167        13.51653
   C        3.72442         4.79581        14.61635
   C        2.60716         3.86032        14.87512
   O        2.19057         2.97371        14.17013
   N        2.10160         4.21604        16.12797
   C        2.77000         5.32395        16.67775
   O        2.50828         5.82930        17.73543
   C        3.81186         5.68460        15.69326
   C        4.76315         6.68494        15.73599
   C        5.64912         6.73336        14.66589
   C        5.58293         5.84334        13.58485
   C        6.69455         5.99418        12.63146
   O        6.95867         5.33839        11.66511
   S        7.73236         7.37426        13.14650
   C        6.74996         7.70879        14.60917
   O        6.99061         8.58648        15.38295
   C        1.09041         3.58283        16.83975
   C        0.40176         2.50804        16.44625
   C       -0.60075         1.92032        17.30348
   N       -0.79767         2.40433        18.55373
   C       -1.70581         1.74773        19.18100
   C       -1.97255         1.28270        20.44204
   C       -1.31877         0.79409        16.95069
   S       -2.71173         0.63156        18.01457
   N       -2.88195        -0.50128        19.20609
   C       -2.63810         0.03903        20.39463
   C       -3.01357        -0.68029        21.59947
   C       -3.61833        -1.86274        21.59121
   H       -6.48313         2.40252        -0.88639
   H       -8.24051        -0.65086         2.67377
   H       -4.29929         0.99396        -0.89383
   H       -5.16146        -2.75331         3.87661
   H       -8.17250        -2.27757         4.23651
   H       -6.83266        -6.01795         8.68847
   H       -2.53110        -3.03149         9.03364
   H       -2.93316        -0.63569         7.14924
   H       -1.61402         1.24533         7.62650
   H       -0.73413         3.26367         7.31654
   H       -1.33767         4.02304         9.48208
   H       -0.96203         5.42529         8.44856
   H        0.72070         4.36531        10.58314
   H        0.11384         5.87877        10.41223
   H        1.69079         3.83201         6.44546
   H        1.52952         5.22923         7.54033
   H       -0.35582         4.59147         5.40934
   H        0.64520         5.88583         5.50017
   H        2.81379         4.48636         9.06015
   H        5.10575         3.43339         9.30772
   H        5.44496         1.58031        10.96657
   H        3.77241        -0.18913        10.60345
   H        1.67653        -1.64128        10.02236
   H       -0.44770        -2.55347         9.22417
   H        4.60659         5.23061        10.81503
   H        4.19850         2.88632        12.73562
   H        4.83748         7.38061        16.55624
   H        0.90546         4.04069        17.80273
   H        0.57077         2.03478        15.49264
   H       -1.61563         1.73989        21.34453
   H       -1.36797         0.37804        15.96365
   H       -2.76849        -0.18148        22.52744
   H       -3.85678        -2.34685        20.66007
   H       -3.88918        -2.36934        22.50169
*
