# ORCA input file
# SCF done       -223.699539778795          0.000932566580
! CAM-B3LYP def2-SVP def2/J RIJCOSX Grid4 TightSCF
%maxcore 5000
%tddft
    Mode sTDDFT
    Ethresh 5.0
    maxcore 5000
end

%pal
  nprocs 6
  end
* xyz 0 1
   C       -2.00201        -8.44329        -6.48064
   C       -0.94943        -9.34478        -6.51639
   C        0.24539        -9.07968        -5.85934
   C        0.42536        -7.90153        -5.15163
   C       -0.61823        -6.99045        -5.10936
   C       -1.83951        -7.26236        -5.77212
   C       -2.75882        -6.16092        -5.54368
   C       -3.95579        -5.94484        -6.15690
   C       -4.50365        -6.80971        -7.13262
   N       -4.99520        -7.46907        -7.93174
   C       -4.79062        -4.82040        -5.95438
   N       -5.52516        -3.94478        -5.85811
   C       -2.12694        -5.30609        -4.52850
   C       -0.71146        -5.68887        -4.47604
   C        0.32533        -4.90440        -4.06315
   C        0.19397        -3.55188        -3.68702
   N        0.14174        -2.43768        -3.41624
   C        1.67244        -5.33171        -4.04046
   N        2.77797        -5.63037        -3.98428
   C       -2.80719        -4.50764        -3.68707
   C       -2.31807        -3.81906        -2.50434
   C       -2.57658        -2.45628        -2.36080
   C       -3.19560        -1.55058        -3.35341
   O       -3.58858        -1.83100        -4.45664
   N       -3.20172        -0.29119        -2.75413
   C       -2.59861        -0.30290        -1.48364
   O       -2.48659         0.65313        -0.76960
   C       -2.17742        -1.71002        -1.25556
   C       -1.49410        -2.29054        -0.20281
   C       -1.24251        -3.65378        -0.31836
   C       -1.63809        -4.41035        -1.42509
   C       -1.30361        -5.84325        -1.32231
   O       -1.55199        -6.71732        -2.10449
   S       -0.42221        -6.13904         0.20659
   C       -0.52797        -4.41669         0.72495
   O       -0.08148        -4.01093         1.75134
   C       -3.69930         0.88291        -3.30178
   C       -4.33538         0.94964        -4.48471
   C       -4.83314         2.13788        -5.07616
   S       -4.75266         3.67895        -4.31529
   C       -5.55402         4.46541        -5.62799
   C       -5.83778         3.55999        -6.66123
   C       -5.43127         2.22950        -6.34724
   C       -5.64447         1.19115        -7.26526
   C       -6.23103         1.45455        -8.48510
   C       -6.50288         0.41461        -9.46807
   C       -6.44590        -0.89692        -9.26154
   C       -6.56098         2.79515        -8.81269
   C       -6.37141         3.82434        -7.93865
   C       -5.93235         5.84698        -5.59500
   C       -7.21090         6.23937        -6.04255
   C       -8.38723         5.40687        -6.36552
   O       -8.57526         4.22871        -6.23694
   N       -9.37247         6.30802        -6.83400
   C       -8.95935         7.63863        -6.72930
   O       -9.60293         8.60775        -7.02856
   C       -7.58840         7.57611        -6.16471
   C       -6.76079         8.61518        -5.78286
   C       -5.52400         8.24453        -5.26846
   C       -5.10297         6.91828        -5.18014
   C       -3.71205         6.77590        -4.71593
   O       -3.05459         5.78329        -4.61143
   S       -3.03873         8.40212        -4.32828
   C       -4.53807         9.24917        -4.81100
   O       -4.68222        10.43216        -4.76375
   C      -10.51999         5.83680        -7.43576
   C      -11.33049         6.58452        -8.20480
   C      -12.42849         6.03501        -8.92259
   C      -12.97871         6.60930       -10.02742
   C      -14.28405         6.28336       -10.59856
   C      -15.00087         5.13554       -10.40786
   C      -14.56320         4.02795        -9.64936
   N      -14.26094         3.09166        -9.05841
   C      -16.26322         4.88463       -10.98874
   N      -17.28782         4.61998       -11.43213
   C      -14.67126         7.41822       -11.42411
   C      -13.58820         8.32521       -11.49688
   C      -13.70492         9.50588       -12.21245
   C      -14.90328         9.77477       -12.85610
   C      -15.96375         8.88140       -12.79366
   C      -15.86056         7.69714       -12.07975
   C      -12.46598         7.76385       -10.76114
   C      -11.15246         8.11658       -10.91552
   C      -10.72550         9.22488       -11.68089
   N      -10.31922        10.11288       -12.28304
   C      -10.04630         7.37060       -10.45371
   N       -9.09971         6.78706       -10.16696
   H       -2.92662        -8.66877        -6.98663
   H       -1.06517       -10.27017        -7.05947
   H        1.04587        -9.80245        -5.89585
   H        1.35240        -7.71212        -4.63544
   H       -3.85708        -4.33126        -3.88710
   H       -1.16408        -1.73129         0.65793
   H       -3.52391         1.74841        -2.67613
   H       -4.47744         0.04640        -5.05786
   H       -5.33555         0.18925        -7.01675
   H       -6.79605         0.78102       -10.44414
   H       -6.18746        -1.33129        -8.31103
   H       -6.67275        -1.59403       -10.04967
   H       -6.97817         2.99981        -9.78786
   H       -6.61670         4.83615        -8.22693
   H       -7.04937         9.65018        -5.86713
   H      -10.64581         4.76671        -7.32541
   H      -11.13446         7.64198        -8.30649
   H      -12.86500         5.12749        -8.52999
   H      -12.89170        10.21147       -12.26224
   H      -15.01042        10.69353       -13.41195
   H      -16.88616         9.11109       -13.30452
   H      -16.69585         7.01771       -12.03654
*
