# ORCA input file
# SCF done       -206.812913785460          0.000524087631
! CAM-B3LYP def2-SVP def2/J RIJCOSX Grid4 TightSCF
%maxcore 5000
%tddft
    Mode sTDDFT
    Ethresh 5.0
    maxcore 5000
end

%pal
  nprocs 6
  end
* xyz 0 1
   C        1.08510        -1.75302        -1.85583
   C        1.49272        -2.58060        -0.84505
   C        2.84402        -2.79277        -0.50170
   N        3.92958        -3.01374        -0.20228
   C        0.60727        -3.25135         0.02521
   N       -0.05847        -3.76611         0.80518
   C        1.94363        -0.83438        -2.59852
   C        1.14313         0.16622        -3.18037
   C        1.69426         1.19499        -3.91703
   C        3.07313         1.22029        -4.08657
   C        3.87413         0.22111        -3.52072
   C        3.31748        -0.80854        -2.77047
  Cl        5.57477         0.25784        -3.75305
  Cl        3.79562         2.48317        -4.99832
   C       -0.28196        -0.10387        -2.88377
   O       -1.24166         0.57003        -3.17318
   C       -0.28663        -1.42650        -2.20122
   C       -1.43868        -2.13303        -2.09067
   C       -1.59547        -3.53737        -1.82626
   C       -2.74299        -3.99129        -1.15688
   C       -2.88229        -5.33057        -0.89424
   C       -1.91210        -6.24998        -1.33560
   C       -0.79956        -5.81610        -2.04550
   C       -0.64410        -4.46685        -2.27432
   C       -2.32222        -7.57639        -0.94079
   C       -3.54523        -7.48187        -0.25379
   C       -3.99154        -6.04236        -0.15797
   C       -4.06885        -5.58128         1.31073
   C       -2.75188        -5.75138         2.05817
   C       -5.35572        -5.82847        -0.83941
   C       -5.36206        -6.26134        -2.30075
   C       -4.17318        -8.60614         0.22232
   C       -3.58406        -9.86527         0.01934
   C       -2.35349        -9.94105        -0.65690
   C       -1.72210        -8.81459        -1.13555
   C       -4.23301       -11.06576         0.48256
   C       -3.94894       -12.35919         0.16730
   C       -4.85076       -13.26650         0.82714
   C       -5.73908       -12.57208         1.58792
   C       -5.39847       -11.11051         1.43107
   O       -5.96214       -10.19811         1.98161
   C       -6.81923       -12.98221         2.41134
   C       -7.24681       -14.25956         2.54220
   C       -8.34814       -14.71985         3.34488
   C       -9.03218       -13.88604         4.24651
   C      -10.08182       -14.38700         4.97586
   C      -10.50746       -15.71756         4.78966
   C       -9.83352       -16.55766         3.91230
   C       -8.75658       -16.05779         3.21383
   C      -11.68358       -15.94411         5.59423
   C      -11.98554       -14.75776         6.28654
   C      -10.94303       -13.69760         6.00925
   C      -10.17472       -13.48604         7.33737
   C       -8.98377       -12.53979         7.27048
   C      -11.55817       -12.39093         5.49046
   C      -12.43039       -12.61023         4.25929
   C      -13.07500       -14.68448         7.11701
   C      -13.89437       -15.81437         7.27432
   C      -13.60760       -16.97968         6.53804
   C      -12.50566       -17.05972         5.71742
   C      -15.04802       -15.83088         8.12488
   C      -15.28215       -15.14205         9.27706
   C      -16.52864       -15.20554        10.02760
   C      -17.74329       -15.62383         9.55521
   C      -18.92511       -15.64550        10.32692
   N      -19.91494       -15.69505        10.90550
   C      -18.00145       -16.05408         8.23516
   N      -18.30088       -16.39496         7.18050
   C      -16.27793       -14.65851        11.35608
   C      -14.95460       -14.19073        11.40774
   C      -14.28158       -14.42555        10.11063
   O      -13.13772       -14.13013         9.84660
   C      -14.42972       -13.61361        12.54618
   C      -15.24670       -13.50045        13.66367
   C      -16.56583       -13.96754        13.62290
   C      -17.09039       -14.54716        12.47332
  Cl      -17.56193       -13.82970        15.01476
  Cl      -14.63329       -12.78673        15.09968
   H        1.06815         1.95915        -4.34976
   H        3.96078        -1.56493        -2.35078
   H       -2.34706        -1.57266        -2.28974
   H       -3.47802        -3.27454        -0.82193
   H       -0.06764        -6.52078        -2.41022
   H        0.20305        -4.11510        -2.84600
   H       -4.84890        -6.15901         1.81101
   H       -4.36394        -4.53014         1.33074
   H       -2.44671        -6.79557         2.06539
   H       -2.86729        -5.42235         3.08814
   H       -1.96214        -5.16347         1.59766
   H       -5.61878        -4.77084        -0.77298
   H       -6.11019        -6.39547        -0.29094
   H       -4.63057        -5.69585        -2.87428
   H       -6.34439        -6.09352        -2.73614
   H       -5.12338        -7.31900        -2.38923
   H       -5.11294        -8.53395         0.74482
   H       -1.88663       -10.90416        -0.79205
   H       -0.77625        -8.89385        -1.65042
   H       -3.17648       -12.69961        -0.49884
   H       -4.79880       -14.33382         0.70928
   H       -7.31636       -12.17393         2.93110
   H       -6.73745       -15.02770         1.97423
   H       -8.73188       -12.85649         4.35421
   H      -10.15032       -17.58088         3.77645
   H       -8.22137       -16.69900         2.52800
   H       -9.82660       -14.46428         7.67938
   H      -10.88816       -13.11929         8.07766
   H       -8.21527       -12.92470         6.60524
   H       -8.55039       -12.44218         8.26340
   H       -9.27946       -11.54919         6.93562
   H      -10.75821       -11.69432         5.23788
   H      -12.15503       -11.94344         6.28748
   H      -11.84837       -13.04715         3.45040
   H      -12.83848       -11.66264         3.91547
   H      -13.25814       -13.27906         4.48503
   H      -13.32378       -13.76514         7.61852
   H      -14.25873       -17.83520         6.64602
   H      -12.28992       -17.96715         5.17396
   H      -15.81142       -16.53822         7.81967
   H      -13.41074       -13.26050        12.56368
   H      -18.10849       -14.90021        12.48038
*
