# ORCA input file
# SCF done       -218.968452012045          0.000735339205
! CAM-B3LYP def2-SVP def2/J RIJCOSX Grid4 TightSCF
%maxcore 5000
%tddft
    Mode sTDDFT
    Ethresh 5.0
    maxcore 5000
end

%pal
  nprocs 6
  end
* xyz 0 1
   C        3.82309        -2.71305        -2.14891
   C        4.20112        -3.65781        -1.23430
   C        5.48417        -4.24216        -1.19608
   N        6.50636        -4.76087        -1.14214
   C        3.38114        -4.08454        -0.16725
   N        2.79111        -4.41338         0.76056
   C        4.71467        -2.01981        -3.07444
   C        4.10384        -0.81789        -3.47914
   C        4.74085         0.06755        -4.32479
   C        6.00983        -0.25827        -4.78737
   C        6.61733        -1.45911        -4.40034
   C        5.97832        -2.34413        -3.53930
  Cl        8.17872        -1.85462        -4.99427
  Cl        6.83398         0.81796        -5.84096
   C        2.75400        -0.71980        -2.87965
   O        1.96795         0.19349        -2.96288
   C        2.54541        -2.02361        -2.19288
   C        1.30221        -2.41288        -1.82146
   C        0.85808        -3.73919        -1.48202
   C       -0.14465        -3.89704        -0.51357
   C       -0.53456        -5.16191        -0.14863
   C       -0.01486        -6.28480        -0.81912
   C        0.93758        -6.13496        -1.81880
   C        1.38613        -4.86822        -2.12404
   C       -0.66726        -7.46940        -0.30964
   C       -1.58503        -7.08135         0.68124
   C       -1.51634        -5.58795         0.91645
   C       -0.92604        -5.38349         2.33370
   C       -0.48388        -3.96548         2.66789
   C       -2.88316        -4.90581         0.76616
   C       -3.51656        -5.17283        -0.59466
   C       -2.35383        -8.01496         1.33135
   C       -2.22137        -9.37143         0.99723
   C       -1.30427        -9.74198         0.00502
   C       -0.52919        -8.80800        -0.64933
   C       -3.00068       -10.37774         1.67789
   S       -2.70344       -12.08058         1.35511
   C       -3.90689       -12.54042         2.49758
   C       -4.50146       -11.42040         3.08079
   C       -3.98900       -10.20439         2.61697
   S       -5.72082       -11.83778         4.25328
   C       -5.41806       -13.52827         3.95917
   C       -5.94627       -14.70800         4.48992
   C       -5.36858       -15.83052         3.93966
   S       -4.15108       -15.42093         2.73825
   C       -4.42818       -13.73987         2.99600
   C       -5.65844       -17.18527         4.26936
   C       -5.06298       -18.24743         3.69233
   C       -5.28253       -19.63998         3.99369
   C       -4.60069       -20.60036         3.22798
   C       -4.76684       -21.93542         3.49844
   C       -5.61211       -22.35205         4.54263
   C       -6.29824       -21.41393         5.30343
   C       -6.13015       -20.07430         5.02381
   C       -5.57812       -23.79385         4.61565
   C       -4.71306       -24.27212         3.61123
   C       -4.13644       -23.12551         2.81466
   C       -4.55753       -23.20878         1.33496
   C       -6.06963       -23.25874         1.15101
   C       -2.60020       -23.08445         2.91359
   C       -2.10156       -22.99415         4.35078
   C       -4.48716       -25.61523         3.47224
   C       -5.15312       -26.52800         4.31673
   C       -5.99244       -26.03401         5.32820
   C       -6.20397       -24.68044         5.48274
   C       -4.86730       -27.91964         4.13407
   C       -5.60802       -29.02250         4.44130
   C       -5.13421       -30.39172         4.29614
   C       -3.83991       -30.79776         4.10690
   C       -3.44373       -32.14808         3.99388
   N       -3.05403       -33.22216         3.88615
   C       -2.71235       -29.95254         4.01950
   N       -1.73791       -29.34833         3.95327
   C       -6.27859       -31.28111         4.46639
   C       -7.41471       -30.50585         4.74920
   C       -7.05668       -29.06984         4.76666
   O       -7.82668       -28.15368         4.94756
   C       -8.65290       -31.07619         4.96319
   C       -8.76075       -32.45928         4.89759
   C       -7.63448       -33.24086         4.61484
   C       -6.38996       -32.66103         4.39722
  Cl       -7.78247       -34.94989         4.53100
  Cl      -10.28163       -33.21009         5.16446
   H        4.26330         0.98930        -4.61741
   H        6.47162        -3.26168        -3.26180
   H        0.54653        -1.63349        -1.83100
   H       -0.56308        -3.01967        -0.04523
   H        1.32329        -6.99412        -2.34629
   H        2.11968        -4.73227        -2.90625
   H       -0.06207        -6.04432         2.43501
   H       -1.68012        -5.70912         3.05405
   H        0.37186        -3.67929         2.06277
   H       -0.18465        -3.92271         3.71277
   H       -1.28763        -3.24863         2.51930
   H       -2.76414        -3.83017         0.90100
   H       -3.54693        -5.26963         1.55313
   H       -2.87896        -4.80179        -1.39427
   H       -4.48105        -4.67518        -0.66460
   H       -3.66765        -6.23956        -0.74566
   H       -3.04944        -7.71176         2.09750
   H       -1.20604       -10.78791        -0.24799
   H        0.17299        -9.11695        -1.40860
   H       -4.33877        -9.24964         2.96164
   H       -6.71193       -14.74367         5.24296
   H       -6.40727       -17.31219         5.03873
   H       -4.33152       -18.05248         2.91622
   H       -3.94803       -20.27392         2.43083
   H       -6.95117       -21.72751         6.10415
   H       -6.65756       -19.34550         5.61923
   H       -4.10855       -24.10131         0.89424
   H       -4.15734       -22.33937         0.80935
   H       -6.49073       -24.13055         1.64706
   H       -6.31515       -23.31373         0.09302
   H       -6.53746       -22.36891         1.56660
   H       -2.23779       -22.22255         2.34962
   H       -2.19495       -23.98368         2.44552
   H       -2.47347       -22.09195         4.83167
   H       -1.01465       -22.96970         4.36714
   H       -2.43406       -23.85357         4.92875
   H       -3.81975       -25.99072         2.70966
   H       -6.45663       -26.72212         6.01340
   H       -6.84519       -24.31771         6.27146
   H       -3.91723       -28.10387         3.64462
   H       -9.51173       -30.46000         5.17783
   H       -5.54733       -33.29549         4.17708
*
