# ORCA input file
# SCF done       -219.469367603144          0.000616295735
! CAM-B3LYP def2-SVP def2/J RIJCOSX Grid4 TightSCF
%maxcore 5000
%tddft
    Mode sTDDFT
    Ethresh 5.0
    maxcore 5000
end

%pal
  nprocs 6
  end
* xyz 0 1
   C        0.45057        -0.41409        -4.12314
   C        0.79818         0.45943        -5.11109
   C        0.05810         1.61805        -5.44194
   N       -0.49996         2.56874        -5.75711
   C        1.95287         0.34601        -5.91925
   N        2.88099         0.33062        -6.59287
   C       -0.68949        -0.29565        -3.22366
   C       -0.65232        -1.34112        -2.28047
   C       -1.61341        -1.46617        -1.29542
   C       -2.63715        -0.52959        -1.24757
   C       -2.68421         0.51351        -2.18492
   C       -1.71496         0.63683        -3.17356
  Cl       -3.95682         1.65925        -2.11762
  Cl       -3.84847        -0.64994        -0.04090
   C        0.50872        -2.20720        -2.53598
   O        0.83506        -3.20434        -1.93392
   C        1.18461        -1.61527        -3.73233
   C        2.23785        -2.18076        -4.34502
   C        2.91735        -3.36419        -3.83631
   C        3.52421        -3.41424        -2.58266
   C        3.60317        -2.37572        -1.52459
   O        3.17785        -1.25041        -1.52474
   N        4.31099        -2.96217        -0.47130
   C        4.70103        -4.27292        -0.75551
   O        5.32276        -5.00749        -0.03798
   C        4.18837        -4.55043        -2.12579
   C        4.29733        -5.70349        -2.88449
   C        3.69999        -5.66436        -4.13852
   C        3.02968        -4.53276        -4.59944
   C        2.40323        -4.68113        -5.92502
   O        1.73498        -3.87406        -6.50068
   S        2.78560        -6.31054        -6.56576
   C        3.70151        -6.79665        -5.09030
   O        4.20915        -7.86503        -4.95366
   C        4.56418        -2.24069         0.69689
   C        5.31177        -2.66887         1.71712
   C        5.59444        -1.91088         2.92260
   C        6.66767        -2.35033         3.72746
   C        7.05088        -1.70507         4.87835
   C        6.31478        -0.58489         5.25096
   C        5.22615        -0.15203         4.45765
   C        4.84962        -0.79286         3.29619
   O        4.69034         0.93342         5.06381
   C        5.45132         1.10888         6.17082
   N        6.41019         0.25252         6.32560
   C        5.19805         2.22486         7.06661
   C        5.00431         3.52674         6.60241
   C        4.98221         4.05790         5.21535
   O        5.13478         3.49783         4.16856
   N        4.74500         5.44287         5.34744
   C        4.65231         5.84378         6.68369
   O        4.46364         6.95924         7.08289
   C        4.83926         4.60136         7.47895
   C        4.88983         4.45129         8.85186
   C        5.07221         3.15426         9.31906
   C        5.19554         2.06315         8.46189
   C        5.21961         0.75456         9.15750
   O        5.10619        -0.33690         8.69928
   S        5.32793         1.05239        10.93482
   C        5.14850         2.82442        10.76224
   O        5.10321         3.58651        11.67786
   C        4.68609         6.25354         4.22764
   C        4.29309         7.53819         4.22921
   C        4.24009         8.36989         3.06969
   C        5.07270         8.35810         1.99465
   C        4.95588         9.23587         0.83715
   C        3.81968         9.86864         0.41624
   C        3.75282        10.69438        -0.72757
   N        3.64110        11.38094        -1.63965
   C        2.55749         9.75018         1.04000
   N        1.49954         9.67946         1.47870
   C        6.24441         9.24168         0.15609
   C        7.09912         8.32661         0.79573
   C        6.39920         7.68444         1.92781
   O        6.84956         6.83197         2.65860
   C        8.39187         8.11315         0.36026
   C        8.84485         8.83228        -0.73830
   C        8.00188         9.75129        -1.37754
   C        6.69978         9.96082        -0.93764
  Cl        8.57867        10.63980        -2.72678
  Cl       10.44359         8.59343        -1.31298
   H       -1.56625        -2.27425        -0.58245
   H       -1.78441         1.44960        -3.87799
   H        2.62021        -1.78723        -5.27783
   H        4.80709        -6.58374        -2.52640
   H        4.09824        -1.26542         0.66691
   H        5.77891        -3.64042         1.65945
   H        7.21080        -3.22834         3.41107
   H        7.87416        -2.04738         5.48245
   H        4.00994        -0.44267         2.72033
   H        4.78990         5.28519         9.52860
   H        4.94382         5.72045         3.32332
   H        3.93950         7.98847         5.14595
   H        3.47688         9.13880         3.10589
   H        9.03055         7.40351         0.86207
   H        6.08008        10.67857        -1.44987
*
