# ORCA input file
# SCF done       -176.809406143739          0.000614374119
! CAM-B3LYP def2-SVP def2/J RIJCOSX Grid4 TightSCF
%maxcore 5000
%tddft
    Mode sTDDFT
    Ethresh 5.0
    maxcore 5000
end

%pal
  nprocs 6
  end
* xyz 0 1
   C       -1.23151         0.84219         0.52374
   C       -2.12205         0.18502         1.34204
   C       -2.43637        -1.18328         1.22788
   N       -2.74115        -2.29069         1.19396
   C       -2.84378         0.76085         2.40444
   N       -3.46687         1.15578         3.28736
   C       -0.48866         0.22412        -0.57359
   C        0.33863         1.21764        -1.17181
   C        1.15261         0.94084        -2.23007
   C        1.17674        -0.37223        -2.75455
   C        0.35210        -1.37147        -2.16467
   C       -0.48041        -1.05246        -1.06493
   C        0.38112        -2.67563        -2.69666
   C        1.18589        -2.98078        -3.76121
   C        1.99807        -1.99601        -4.34091
   C        1.99355        -0.71894        -3.84766
   C        0.13484         2.49267        -0.46597
   O        0.69359         3.55460        -0.71258
   C       -0.85361         2.23325         0.57301
   C       -1.35816         3.16932         1.45787
   C       -1.10051         4.52476         1.58429
   S       -0.01717         5.46322         0.59275
   C       -0.40877         6.93537         1.41615
   C       -1.32388         6.72006         2.46919
   C       -1.72075         5.35875         2.55833
   C       -2.62690         4.96141         3.55024
   C       -3.11514         5.87843         4.45200
   C       -4.08225         5.47393         5.51793
   C       -2.68289         7.21703         4.38129
   C       -1.80689         7.63720         3.41832
   C        0.17254         8.14063         0.95944
   N        1.27974         8.10781         0.13224
   C        1.61407         9.37835        -0.20176
   C        2.51970        10.15315        -0.91516
   C        2.11693        11.48543        -0.73771
   N        0.99107        11.51750         0.06440
   C        0.67218        10.24568         0.41576
   C       -0.22289         9.47560         1.14570
   C        2.66550        12.68274        -1.25155
   C        3.85564        12.77587        -1.90646
   C        4.41309        13.96276        -2.42937
   S        6.13109        14.06164        -2.60500
   C        6.08848        15.75498        -3.01450
   C        4.75168        16.18033        -3.16583
   C        3.80340        15.17273        -2.83102
   C        2.43287        15.42452        -3.01543
   C        2.01005        16.64161        -3.48920
   C        0.55612        16.93796        -3.68833
   C        2.96244        17.62160        -3.83534
   C        4.30449        17.39869        -3.70136
   C        7.29392        16.44492        -3.16011
   C        7.49779        17.79080        -2.93641
   C        8.68277        18.53207        -3.28582
   C        9.67168        18.12543        -4.15068
   C       10.80714        18.89466        -4.46810
   N       11.75751        19.47147        -4.75876
   C        9.66543        16.90642        -4.85612
   N        9.71259        15.94408        -5.48272
   C        8.60647        19.83601        -2.63349
   C        7.38359        19.90178        -1.90775
   C        6.64936        18.63069        -2.06546
   O        5.61156        18.32407        -1.50971
   C        7.02607        21.00873        -1.19617
   C        7.89012        22.12802        -1.18262
   C        9.11673        22.06895        -1.90313
   C        9.46227        20.90359        -2.62798
   C        9.97176        23.18875        -1.87972
   C        9.63264        24.31530        -1.18033
   C        8.42397        24.37270        -0.47183
   C        7.57114        23.30205        -0.47350
   H        1.77048         1.71237        -2.66544
   H       -1.09266        -1.83313        -0.64247
   H       -0.24627        -3.43108        -2.24651
   H        1.20017        -3.98347        -4.16176
   H        2.62729        -2.25295        -5.18013
   H        2.61712         0.04427        -4.29044
   H       -2.08508         2.79843         2.16615
   H       -2.94297         3.93171         3.62226
   H       -3.68309         5.71637         6.50240
   H       -4.28666         4.40752         5.47449
   H       -5.02052         6.01564         5.39930
   H       -3.05165         7.91931         5.11471
   H       -1.46606         8.65874         3.40231
   H        1.73932         7.26022        -0.15556
   H        3.35253         9.82310        -1.50126
   H        0.52256        12.35850         0.35424
   H       -1.07894         9.81185         1.69236
   H        2.10431        13.58466        -1.05018
   H        4.47770        11.89400        -1.97511
   H        1.71488        14.64040        -2.83266
   H        0.36786        17.24143        -4.71716
   H        0.25011        17.75871        -3.04027
   H       -0.05715        16.06915        -3.46307
   H        2.61318        18.55769        -4.24591
   H        5.01901        18.13342        -4.03544
   H        8.15664        15.83689        -3.40717
   H        6.09277        21.03389        -0.65314
   H       10.40126        20.88648        -3.15827
   H       10.90138        23.13995        -2.42779
   H       10.29451        25.16848        -1.16984
   H        8.17153        25.26878         0.07561
   H        6.63860        23.34019         0.07090
*
