# ORCA input file
# SCF done       -174.387253563218          0.000582858667
! CAM-B3LYP def2-SVP def2/J RIJCOSX Grid4 TightSCF
%maxcore 5000
%tddft
    Mode sTDDFT
    Ethresh 5.0
    maxcore 5000
end

%pal
  nprocs 6
  end
* xyz 0 1
   C        2.75197         3.12230        -1.44694
   C        3.52981         3.84619        -0.57711
   C        4.89377         4.11666        -0.79213
   N        6.01524         4.34558        -0.89253
   C        3.06585         4.31721         0.66406
   N        2.75598         4.68271         1.71020
   C        3.25600         2.42408        -2.62397
   C        2.40606         1.30928        -2.87733
   C        2.67682         0.42154        -3.87724
   C        3.82006         0.62473        -4.68603
   C        4.63349         1.77479        -4.47584
   C        4.33994         2.66845        -3.41982
   C        5.74920         1.98237        -5.31232
   C        6.08094         1.06764        -6.27416
   C        5.30599        -0.08821        -6.45217
   C        4.19036        -0.29578        -5.68662
   C        1.29302         1.31618        -1.90026
   O        0.41468         0.49138        -1.76798
   C        1.45349         2.57545        -1.13708
   C        0.48382         3.01094        -0.27674
   N        0.24998         4.28450         0.06894
   C       -0.58725         4.65559         1.18001
   N       -1.41829         5.72411         0.65814
   C       -0.68787         6.41155        -0.38275
   C        0.40261         5.39859        -0.85235
   N        1.64303         6.10790        -0.73779
   C        1.42951         7.19419         0.20666
   N        0.03700         7.59219         0.06901
   C        2.48077         6.22345        -1.84007
   N        3.74726         6.73050        -1.66597
   C        4.44621         6.52676        -2.83236
   C        5.69872         6.63892        -3.43987
   C        5.55683         6.07921        -4.71062
   N        4.25506         5.66609        -4.88888
   C        3.57246         5.91893        -3.74651
   C        2.32601         5.72998        -3.12174
   C        6.58334         5.88852        -5.69157
   C        6.39275         5.26664        -6.86600
   N        7.37501         4.96936        -7.79884
   C        8.67026         5.64417        -7.74623
   N        9.35831         5.29734        -8.96246
   C        8.34179         5.02605        -9.96626
   C        7.02034         4.74374        -9.17398
   N        6.75535         3.33916        -9.47325
   C        7.99075         2.75388        -9.98791
   N        8.64948         3.82070       -10.69853
   C        5.58425         2.77177        -9.22297
   C        5.09451         1.50882        -9.47700
   C        3.85336         1.02706        -8.90165
   C        3.01264         1.67830        -8.02407
   C        1.84327         1.11426        -7.47626
   N        0.87958         0.73158        -6.98131
   C        3.18049         2.96429        -7.50192
   N        3.23007         4.01076        -7.02080
   C        3.64690        -0.33809        -9.36382
   C        4.72381        -0.68752       -10.22503
   C        5.63735         0.45947       -10.34973
   O        6.59545         0.51483       -11.10650
   C        4.81221        -1.91245       -10.81795
   C        3.80719        -2.87340       -10.56421
   C        2.72729        -2.53619        -9.69875
   C        2.66147        -1.25496        -9.10495
   C        1.73016        -3.50181        -9.45144
   C        1.79356        -4.73934       -10.03198
   C        2.85620        -5.06871       -10.88605
   C        3.84234        -4.15526       -11.14551
   H        2.03586        -0.42985        -4.04922
   H        4.98032         3.52208        -3.26351
   H        6.34374         2.87262        -5.16658
   H        6.94782         1.22448        -6.89999
   H        5.59398        -0.81150        -7.20183
   H        3.57910        -1.17446        -5.83431
   H       -0.21154         2.27403         0.11729
   H        0.05535         4.95750         2.02535
   H       -1.21289         3.81140         1.49346
   H       -1.73228         6.36636         1.37420
   H       -1.39114         6.67686        -1.17872
   H        0.25904         5.02467        -1.86756
   H        2.10722         8.02842         0.02649
   H        1.59089         6.80574         1.22206
   H       -0.05945         8.34837        -0.59794
   H        4.12812         7.03782        -0.78839
   H        6.60315         7.03716        -3.02688
   H        3.88642         5.18275        -5.69551
   H        1.45336         5.28543        -3.55574
   H        7.55951         6.25180        -5.40993
   H        5.41701         4.89667        -7.13795
   H        9.23068         5.33293        -6.86260
   H        8.52758         6.73780        -7.71107
   H        9.93406         4.47024        -8.85201
   H        8.24989         5.89139       -10.63001
   H        6.16527         5.35054        -9.50135
   H        7.79977         1.88414       -10.61779
   H        8.60922         2.45551        -9.12865
   H        8.33761         3.87192       -11.66027
   H        4.90356         3.44035        -8.71124
   H        5.64015        -2.14780       -11.47036
   H        1.82656        -1.03135        -8.46089
   H        0.91327        -3.24336        -8.79344
   H        1.02431        -5.47143        -9.83625
   H        2.88982        -6.04889       -11.33788
   H        4.66325        -4.40309       -11.80283
*
