# ORCA input file
# SCF done       -246.854197200824          0.000324428443
! CAM-B3LYP def2-SVP def2/J RIJCOSX Grid4 TightSCF
%maxcore 5000
%tddft
    Mode sTDDFT
    Ethresh 5.0
    maxcore 5000
end

%pal
  nprocs 6
  end
* xyz 0 1
   C        8.66600         9.89776        -7.22223
   C        7.36717        10.30092        -7.34531
   C        6.88752        11.10933        -8.40009
   N        6.43809        11.75677        -9.23362
   C        6.33275         9.99255        -6.43369
   N        5.44752         9.79644        -5.73062
   C        9.76744        10.25506        -8.10390
   C       10.97892         9.71852        -7.57547
   C       12.18478         9.91416        -8.18924
   C       12.23643        10.66681        -9.38185
   C       11.02931        11.20126        -9.92151
   C        9.79711        10.98418        -9.26481
   C       11.09292        11.94901       -11.11521
   C       12.28913        12.16118       -11.74504
   C       13.47641        11.63591       -11.21216
   C       13.45095        10.90467       -10.05575
   C       10.69736         8.98505        -6.34012
   O       11.48749         8.39696        -5.63243
   C        9.21491         9.07913        -6.14469
   C        8.54602         8.43335        -5.17359
   C        9.19921         7.64289        -4.14069
   C        8.86631         6.30475        -3.95485
   C        7.87716         5.48331        -4.68766
   O        7.15713         5.79816        -5.59901
   N        7.93802         4.21142        -4.10909
   C        8.90454         4.12894        -3.10657
   O        9.19350         3.14970        -2.47137
   C        9.49718         5.49070        -3.01201
   C       10.50751         5.96612        -2.20090
   C       10.83553         7.31133        -2.36009
   C       10.19683         8.13432        -3.28238
   C       10.65036         9.54295        -3.25411
   O       10.20121        10.47791        -3.84584
   S       12.01425         9.68850        -2.09983
   C       11.90588         7.97169        -1.58280
   O       12.60357         7.48522        -0.74793
   C        7.09432         3.18874        -4.55576
   C        7.04209         1.95889        -4.04343
   C        6.08974         0.96019        -4.50178
   C        4.79796         1.30034        -4.76980
   S        3.77196        -0.02498        -5.14724
   C        5.11202        -1.11181        -4.95830
   C        6.31003        -0.46094        -4.63262
   C        7.50034        -1.22245        -4.54624
   C        8.79715        -0.46767        -4.39591
   C        9.27955        -0.36036        -2.94528
   C        7.45727        -2.60903        -4.65546
   C        8.70375        -3.42283        -4.43503
   C        8.74306        -3.98483        -3.00905
   C        6.23382        -3.27025        -4.94340
   C        5.91644        -4.66963        -5.17831
   C        4.59450        -4.83391        -5.51485
   S        3.67214        -3.40410        -5.55317
   C        5.08265        -2.48573        -5.12180
   C        6.77060        -5.81834        -5.05845
   C        6.50763        -7.02678        -5.60386
   C        7.35202        -8.17859        -5.49296
   C        7.34181        -9.14261        -6.52161
   C        6.45995        -9.23510        -7.70395
   O        5.56964        -8.51420        -8.06830
   N        6.86285       -10.39482        -8.39644
   C        7.94103       -11.03103        -7.77433
   O        8.49891       -12.02351        -8.15548
   C        8.22583       -10.21836        -6.56419
   C        9.18134       -10.42350        -5.58651
   C        9.14461        -9.54088        -4.51381
   C        8.24691        -8.47464        -4.42995
   C        8.23999        -7.83790        -3.10041
   O        7.46212        -7.06048        -2.63353
   S        9.60273        -8.49735        -2.11195
   C       10.05032        -9.69931        -3.35559
   O       10.93877       -10.48649        -3.23440
   C        6.14257       -10.84892        -9.48472
   C        6.51963       -11.84630       -10.30234
   C        5.70696       -12.34944       -11.36195
   C        4.35229       -12.47715       -11.34893
   C        3.54964       -13.00990       -12.43912
   C        3.89265       -13.00166       -13.76411
   C        3.07008       -13.50422       -14.79378
   N        2.44489       -13.90452       -15.66926
   C        5.08891       -12.45180       -14.27272
   N        6.02965       -12.00226       -14.75314
   C        2.28570       -13.46742       -11.88067
   C        2.25537       -13.12644       -10.49820
   C        3.49951       -12.42987       -10.12801
   O        3.76890       -11.97241        -9.03800
   C        1.18640       -13.42953        -9.70463
   C        0.08023       -14.10406       -10.26767
   C        0.10698       -14.45688       -11.64820
   C        1.22646       -14.12700       -12.44600
   C       -0.99961       -15.13709       -12.19621
   C       -2.08192       -15.45242       -11.42061
   C       -2.10817       -15.10246       -10.06228
   C       -1.05057       -14.44197        -9.49834
   H       13.08757         9.50027        -7.76499
   H        8.90240        11.40118        -9.69915
   H       10.17725        12.35269       -11.52129
   H       12.32759        12.73603       -12.65798
   H       14.41088        11.81397       -11.72258
   H       14.36120        10.49805        -9.64029
   H        7.46421         8.41396        -5.15907
   H       11.02031         5.34444        -1.48448
   H        6.48243         3.50575        -5.38933
   H        7.68078         1.68861        -3.21868
   H        4.37123         2.28282        -4.71579
   H        8.64769         0.53366        -4.80102
   H        9.57580        -0.93089        -5.00418
   H        8.44028        -0.21304        -2.26921
   H        9.95897         0.48148        -2.83537
   H        9.80335        -1.26099        -2.63896
   H        9.59228        -2.81213        -4.58085
   H        8.75276        -4.22545        -5.17254
   H        8.78106        -3.17282        -2.28832
   H        9.62687        -4.60574        -2.87298
   H        7.86258        -4.57956        -2.77869
   H        4.09842        -5.76354        -5.71249
   H        7.67784        -5.70439        -4.49747
   H        5.66989        -7.14938        -6.27333
   H        9.88912       -11.23536        -5.62450
   H        5.24095       -10.27462        -9.64556
   H        7.49408       -12.29925       -10.18842
   H        6.24914       -12.74283       -12.21415
   H        1.18513       -13.15771        -8.65946
   H        1.22245       -14.41332       -13.48594
   H       -0.97569       -15.40281       -13.24283
   H       -2.92454       -15.97346       -11.84979
   H       -2.97015       -15.35941        -9.46496
   H       -1.06484       -14.17015        -8.45297
*
