96
 SCF done       -182.849786512645          0.000171443113
C           7.08499746963796    1.03021637531489    7.32012530497783
C           5.95961294245326    1.40112251980467    8.20959060017556
N           7.96030321824030    0.17757775524497    7.71344888472996
N           8.95284646691633   -0.26225661839569    6.90020345307425
C           8.84381161960255   -0.13558432445737    5.41606682961020
C           8.25932153680631    1.19868671777001    5.12612832392475
C           7.27037589180758    1.68738525139488    6.04522423949932
N           6.85806863008672    2.84504072583378    5.59587626466211
O           7.53963416328478    3.07604748795767    4.47156145150328
N           8.39821316669233    2.08240804082249    4.18333393359210
C           7.82420748219459   -1.21442050444924    5.00272290698853
C          10.18924583426928   -0.46097818041140    4.84567786171420
C          11.34169565519373   -0.57240810031735    5.69547459022036
N          11.35507424984607   -0.25240372265050    6.96735269883175
O          10.15090326070739    0.25746613265980    7.46994808077570
O          12.27362770528828   -0.24993480251513    7.75388044133829
C          12.45166106062932   -1.03855418545786    4.90553512650225
C          11.98892615282156   -1.21604410230746    3.65046043250714
C          10.57126687791266   -0.87352893751683    3.59166158948042
C           9.81423083453894   -0.94194694618425    2.37073822954774
C           8.99148960470991    0.04312460821303    1.85499666558776
C           8.53876561787126   -0.34257896964522    0.57857051013752
C           9.06566427133001   -1.58658906561161    0.27834285125012
N           8.82130565521392   -2.26798534428003   -0.91373952071514
O           8.06814617205072   -1.75257642041158   -1.72099337305637
O           9.37274273900566   -3.35360526573902   -1.11526709719378
C           9.86634327073576   -2.02520078173463    1.40692909423035
C          10.39964816878839   -3.28833258968910    1.49208846890698
C          11.04535341479538   -3.93901056402819    2.54182293396640
C          11.56959436229294   -5.20252147708878    2.38163500292072
S          12.35797333109718   -6.01175936846156    3.72518555930596
C          12.76573825755338   -7.45906022907297    2.79886571295168
C          12.28090622428816   -7.29680367072047    1.46790991892143
C          11.62994197064882   -6.06074360623496    1.25016458256087
N          11.21799757971355   -6.01732445668304   -0.04019429644336
C          11.58229298203239   -7.18868001562687   -0.64853571732059
C          11.29996403653327   -7.46206728747878   -1.99595461679122
N          11.08490031328794   -7.71341836770182   -3.09350509000426
C          12.24395337098327   -8.00604289194325    0.25632320618046
C          13.44524244616795   -8.47488289233929    3.41664859280592
C          13.85502962682279   -9.66708692581307    2.80720805278098
C          14.53946706746900  -10.67503497754461    3.44481834558783
C          14.98289527269450  -11.88691365736635    2.82454954311648
C          15.63748293753474  -12.65981963018639    3.74655624204592
C          15.60963858524274  -11.91596004021738    5.02400604427172
C          14.95583371924953  -10.73909058977795    4.82894315300729
C          16.14664821040524  -12.32812521084432    6.24788548245163
N          16.57119483531859  -12.63354364528912    7.27129509172854
C          16.25143008533366  -13.93154008717684    3.55684132990830
C          16.93869195607305  -14.68051872221945    4.47037920226083
C          17.40732122517982  -15.89359893753428    3.84438777185226
C          16.95000866475249  -15.84434191445018    2.46823607390478
C          16.26331060141653  -14.68673222713340    2.28706429628504
C          15.66997624622917  -14.30171726418463    1.07811193312220
N          15.19638484744256  -14.01884218571641    0.07049238392989
C          18.12861121292125  -16.85722110330739    4.46458473081376
C          18.61169298347267  -18.07048947460997    3.83440279671555
C          18.40112962545949  -19.42808813070555    4.48283588733418
C          17.68088310648810  -19.53259746988147    5.80368570860067
N          19.71368697029313  -18.77199429069993    4.47625464037688
N          20.75807515120504  -19.19329945480261    3.72175847490029
C          20.71984166139259  -20.24200602472160    2.98876048967314
C          19.48744933088264  -20.99715757506314    2.86759804313916
C          18.32116514221366  -20.58171778543793    3.59566086400776
N          17.36865607612036  -21.43401076494449    3.34719566416741
O          17.89129147408445  -22.33796368376656    2.49683277271587
N          19.17359190932655  -22.07932691653026    2.20916702437722
C          21.93953006063643  -20.69149785398627    2.27164097337585
H           6.09637559743055    0.94591419742697    9.18532588677928
H           5.01779751319058    1.06508003762313    7.77696402000529
H           5.91283250704994    2.48491434050654    8.29601611138408
H           6.85866517046941   -1.04177696037497    5.47281649582575
H           8.19193139772672   -2.18946797379856    5.31077703135589
H           7.70374971119745   -1.20019296996875    3.92304557272907
H          13.44326915598056   -1.18157038952573    5.28527866992129
H          12.55471643294790   -1.52231145257795    2.79146239175136
H           8.78183477831101    0.98189661945805    2.33100106917286
H           7.90325314974855    0.23291887399780   -0.06775342092346
H          10.25755632262647   -3.87461469398461    0.59957359583938
H          11.14425162988399   -3.46752542710400    3.50787224422216
H          10.71751665944224   -5.27889409032989   -0.51879215639152
H          12.63181908250490   -8.97835144335188    0.03198652850493
H          13.68618672750469   -8.32971913470328    4.46058741129318
H          13.62870325833220   -9.81149753693425    1.76126328022263
H          14.81991837130539  -12.12486976550827    1.79176420107559
H          14.77742251222938   -9.99007828052187    5.57692884898147
H          17.12662463516513  -14.43109455674576    5.49587406932410
H          17.11863932021769  -16.59812036768446    1.72247374098255
H          18.37506593224488  -16.73247560688215    5.50913392382115
H          18.61172170804809  -18.07383751412268    2.74513312869698
H          18.10638256110943  -18.83443753458338    6.51794474091838
H          17.78193414129924  -20.54182772718897    6.19710038372612
H          16.62234011274883  -19.31927125912902    5.67136757598651
H          22.75150615369785  -19.99482617660986    2.45495340891201
H          21.73405298364304  -20.75824090961202    1.20472801760030
H          22.21934588010174  -21.68643768026025    2.61416557918917
