90
 SCF done       -166.723927959973          0.000742702904
C          -5.21835762272998    0.71239989590610    6.66557300795047
C          -5.08872062485884   -0.51861021434041    6.07933641351832
C          -5.41327406792395   -1.73516453043539    6.71822644797058
N          -5.65651699192690   -2.75831065245118    7.17765424730920
C          -4.62892497424537   -0.76568220443955    4.76827419822323
N          -4.26759356349896   -1.04861261326814    3.71545019682745
C          -5.71328976163965    0.95602648868450    8.01627088470193
C          -5.74264033831493    2.36219835710582    8.24498903868553
C          -6.15986000514445    2.89618508757662    9.43051549770809
C          -6.57564145840824    2.02999746590544   10.46572151526074
C          -6.55172360064487    0.62197773731955   10.24656318255609
C          -6.11472444426169    0.09942560502212    9.00737791443896
C          -6.96900795879391   -0.23358885559780   11.28633334486127
C          -7.38827515884764    0.27521371797995   12.48574373210291
C          -7.40971138355299    1.66132858968625   12.70072643725780
C          -7.01264641831403    2.52043432180028   11.71185884849007
C          -5.26758283428649    3.05615947494286    7.04318183749910
O          -5.17564925476054    4.26154058447241    6.88715614661981
C          -4.91642881985708    2.00649924479480    6.07108848866080
C          -4.36541583532308    2.21948863179091    4.84014739330799
C          -4.04710436388365    3.42891109362971    4.18588050854741
S          -4.32672665038895    5.05162353884159    4.75606724205390
C          -3.65544084943887    5.72994768058880    3.31396289748190
C          -3.21982453120848    4.73283461461050    2.43260593959962
C          -3.45119448352116    3.44924794703049    2.93060349028833
C          -2.60327421459524    4.94228836543644    1.18522361871207
N          -2.08686268681328    5.06651044677514    0.16851161360293
C          -3.62298519688689    7.14974288058639    3.19099137671573
C          -3.15058123820971    7.84278089775199    2.13820858162293
C          -3.14750561216742    9.28984143372981    2.03422675909301
C          -3.35278538074905   10.16147170045788    3.04239345399637
N          -2.79221756357237    9.71065404094013    0.76148866977115
N          -3.01391891708924   10.86266217738316    0.38436433591057
C          -2.96904686335455   11.44474027081373   -0.78647942146590
C          -3.50494725848860   10.98545326254113   -1.99824055643645
C          -3.48091321287221   12.03906559180711   -2.92355127257714
C          -2.92315142671915   13.21301315414846   -2.21956786874543
C          -2.64603513275538   12.85466173889944   -0.94091754991358
C          -2.77338654960120   14.51297463844706   -2.72354910133444
N          -2.66475536878186   15.60277007660090   -3.06701923726624
C          -3.81576981205773   11.98544318726843   -4.26997798255493
C          -3.54287775719508   12.96776485197329   -5.25273356101577
C          -4.03657862932773   12.53580665500534   -6.47444465440492
C          -4.65660196019207   11.23561227758735   -6.25990722637322
C          -4.51049390351206   10.88666932021564   -4.95325227800138
C          -4.98929051681980    9.71406513988606   -4.36050459396830
N          -5.39443942204437    8.75116744245756   -3.88163960138637
C          -4.08463939588732   13.16737024773991   -7.73775398303050
C          -3.44021752276444   14.28469071285030   -8.19600273310306
C          -3.70647705042515   14.92098498810132   -9.47506400587503
C          -4.69343793650366   14.59658718024576  -10.37266892543394
C          -4.89786927940254   15.26541874393664  -11.59809948192476
N          -5.12164113710123   15.75594872046313  -12.61199945702409
C          -5.65467470704775   13.57412843418261  -10.23072622139657
N          -6.48308535500297   12.77800737738127  -10.20456682706611
C          -2.76679814191852   16.02549706848253   -9.63403897499066
C          -1.92812618658311   16.07402494967459   -8.48605592104556
C          -2.29203794523073   14.98775332377781   -7.56041262180318
O          -1.71190157348094   14.70281802806596   -6.53559849470554
C          -0.95364346538093   17.01814881819012   -8.33873737005271
C          -0.77120601964653   17.98214689285989   -9.35509566137883
C          -1.60086413160734   17.93740045570852  -10.51242797525770
C          -2.59988431221864   16.94466607005626  -10.63652731477396
C          -1.40787836797773   18.90077384048400  -11.52352486882672
C          -0.44442883627972   19.86420065098802  -11.39784262204418
C           0.37006182639992   19.90887357626868  -10.25642234932487
C           0.21009207560938   18.98799256202724   -9.25679513380594
H          -6.17136883292936    3.96620291698947    9.57611675584490
H          -6.10707987774200   -0.97081316041933    8.87686289302071
H          -6.95099260224603   -1.30005184588108   11.11651385242550
H          -7.70572424658627   -0.38845278740750   13.27593107194834
H          -7.74243780615804    2.04516635558910   13.65343288349279
H          -7.02729576833687    3.58870394316929   11.87115872946330
H          -4.11713708265730    1.34616029514155    4.24909606495558
H          -3.19250902123498    2.55200090260097    2.39491342598233
H          -4.03812518722387    7.67505304171066    4.04145254260932
H          -2.76191913363563    7.32977539050301    1.27087290657979
H          -3.51914340606288    9.83545704401901    4.05185096116324
H          -3.30010353187373   11.22226780750675    2.86669115004838
H          -3.89048875897881    9.99872805555574   -2.16168494084190
H          -2.25510741137488   13.47778932242770   -0.15892088156154
H          -3.02976812806358   13.88900084255529   -5.06756220813900
H          -5.14264084308736   10.65899458660096   -7.02563799801163
H          -4.75273937856672   12.67528106336480   -8.43532599401841
H          -0.33507291044971   17.03170849574218   -7.45368930580905
H          -3.20823266006258   16.93975568692427  -11.52663563137279
H          -2.03849467379280   18.86315660917535  -12.39975980984901
H          -0.30497433455284   20.59810691172854  -12.17747600938237
H           1.12484886632331   20.67666247027606  -10.17345172851846
H           0.83388881129188   19.01718285281616   -8.37538014306526
