104
 SCF done       -211.421308927479          0.003550500914
C          -0.37868330162779   -7.37491476126999   -0.97390759768370
N           0.33278142457897   -7.86233146853836   -2.03624766205792
C           1.52792604277015   -7.21462395937090   -2.01884091341663
N           2.56102536945524   -7.32654248594076   -2.83557432465554
C           3.54544017793337   -6.51924221083464   -2.48691775193454
N           4.75232098154842   -6.32636721295076   -3.06097257106971
C           5.40621338986381   -5.37335113019867   -2.31047971350908
N           4.67524209513793   -4.94749343418365   -1.30075724018872
C           3.50571074258014   -5.61658601689993   -1.35590613619775
N           2.46060329261976   -5.52579637971079   -0.55601309688822
C           1.46450729426415   -6.32621173696490   -0.88576885958506
N           0.25210395848896   -6.47950981042618   -0.28349513211542
C           6.70596678966090   -4.83815698923859   -2.60153199427336
C           7.57330552438832   -5.10886335798001   -3.74971247088738
N           7.45659619526562   -6.06700590407520   -4.80022009115176
O           8.12590035479736   -5.86984485198704   -5.78974787896926
O           6.72762610252702   -7.03524608478634   -4.66057197488851
C           8.65568574690996   -4.29007785035631   -3.73404718584047
C           8.59343465901482   -3.42293999382741   -2.55181548767370
C           7.30991981086144   -3.82071005954079   -1.88010859931260
C           6.96707835336259   -3.05876640317857   -0.73504578695711
C           6.18220595579967   -3.26611405545884    0.37728597030950
C           6.30066395894858   -2.14651794918549    1.24035145430954
C           7.14108412095103   -1.21835937983097    0.67229920326337
N           7.46646096918538    0.03750612079731    1.21877941360409
O           8.10177846146527    0.81730535424140    0.52830962419627
O           7.08358964656041    0.27590333894064    2.34865737518204
C           7.60277346815595   -1.73950023895941   -0.59411170371584
C           8.39056748592718   -1.18504329203514   -1.53481621020657
C           8.62334421749621   -1.89001697175709   -2.83037600638982
C           9.88388173630680   -1.47143801867945   -3.50455093049187
C          11.13698038956325   -1.36588902635700   -2.92275434663734
N          11.46265805683743   -1.58669532077360   -1.58007084985172
O          12.58087030542622   -1.30645319026495   -1.19891005576761
O          10.59386977105058   -2.07728552264009   -0.85810163951885
C          12.10737101967822   -1.00727951662424   -3.92746795578298
C          11.47428207892387   -0.97716362275626   -5.12163364301116
C          10.06466826137642   -1.24859359634312   -4.91396292830617
C           9.09089237811262   -1.21542634645450   -5.91179034269573
C           7.76426210124069   -0.73768636570383   -5.81539639196718
C           7.23169462638715   -0.62679715194319   -7.08000254103191
C           8.17649118546991   -1.09039005654261   -8.02621027802343
N           7.91490625492015   -1.15133012509665   -9.40214748939108
O           6.80799657003153   -0.80203975271276   -9.77751595831835
O           8.80097066140492   -1.53418599711959  -10.15346125803378
C           9.33390538827755   -1.51260818385785   -7.34205354332946
C          10.40233577200323   -2.22070996370661   -7.88581338267395
C          11.30256948130398   -2.99339294798672   -7.17892626802502
C          12.44767041456340   -3.57463194150792   -7.72866123078206
C          13.36665526647352   -4.35861570188097   -7.02279157990032
C          14.43840733311283   -4.69708583704136   -7.86787611147158
C          14.13266385043823   -4.09303331001461   -9.18030439784441
C          12.95112927315010   -3.42838461970252   -9.08505188355049
C          14.91051512526375   -4.18549633728424  -10.34130169857864
N          15.52956710170298   -4.24758958943648  -11.30691985211907
C          15.58175580167230   -5.41500333666786   -7.54141855048855
C          16.69650655658322   -5.69086230443030   -8.35373505711243
C          17.64963924012994   -6.38351941982349   -7.61393962701110
C          17.10996832768365   -6.57649179632902   -6.27446212067081
C          15.87891289394039   -6.00767249618465   -6.21785673445845
C          15.04752894328749   -6.00602807570292   -5.09215124585003
N          14.38632805666377   -6.02667754440584   -4.15240194124459
C          18.91015418738335   -6.79441901986613   -8.08764567820456
C          19.85748263611446   -7.41867253615127   -7.32500311875933
C          21.13226087309904   -7.80951787907047   -7.77827463445166
C          21.70077865425228   -7.69792914516957   -9.04568468466233
C          22.99855875197918   -8.18744309171973   -9.08125595901187
C          23.43903718912249   -8.68026366763888   -7.83435818434357
S          22.24881326122398   -8.54396803558553   -6.62636184892127
C          24.77209134036559   -9.14119720165936   -7.97890252578657
C          25.17504831670945   -8.94377170269805   -9.30971557726618
C          24.08086830601077   -8.34308282802954  -10.04880061991671
C          24.06034733779416   -7.99544745659441  -11.36801146452312
C          22.92232114898228   -7.41822163486690  -11.97217309868507
N          21.99588190042959   -6.95041331321893  -12.45811216981730
C          25.17456011736801   -8.19176432399503  -12.21218338306830
N          26.08109112348174   -8.35028055279974  -12.89554509024431
C          26.49539612754927   -9.37089343073279   -9.53700311477084
C          27.05675222710166   -9.87222600851968   -8.39933499484503
S          26.00510562537107   -9.84278488486924   -7.02603721012653
H          -1.37011895783432   -7.71471055964025   -0.74561773745155
H           0.04744047649100   -8.55489587581648   -2.71023979665935
H           5.16357257188682   -6.85907654619523   -3.82240153257432
H           9.45130497619529   -4.29422445520458   -4.45515695608257
H           9.43645992914171   -3.60738408535529   -1.87125629470428
H           5.58413840382085   -4.13227927638203    0.57594727150493
H           5.80471572970348   -2.03512977369798    2.18687574010842
H           8.79568383862514   -0.19204967200177   -1.40115858392651
H           7.77471523903017   -1.68134065485224   -3.48926855027728
H          13.13947371531232   -0.81169933114038   -3.71348181176022
H          11.89645026742788   -0.69565870111151   -6.06635076448404
H           7.29465796772997   -0.36360540464080   -4.92601117297338
H           6.26322573166133   -0.24162628127204   -7.34047301567138
H          10.47077640863481   -2.20771195649759   -8.96681126587715
H          11.12633549926396   -3.18844911321202   -6.12918039612259
H          13.27498316112112   -4.63487408490627   -5.99043524038008
H          12.46589106308967   -2.88827917918965   -9.87678312427952
H          16.80344138552888   -5.39683742949869   -9.37957958937140
H          17.60130573570891   -7.08810307790175   -5.46772732243595
H          19.12175358292522   -6.57414353293928   -9.12487808470809
H          19.64494691493755   -7.62763423124778   -6.28523689023802
H          21.17967965520873   -7.27992276112386   -9.88731847164699
H          27.00802059280978   -9.31388278243749  -10.47968523219240
H          28.04594936596690  -10.26725854188070   -8.27817245646311
