64
 SCF done       -114.848885105841          0.000242236066
C          14.11488160673620    2.09984380607094   -8.82546857258822
N          13.59899502531906    1.51034307313487   -7.83268658669406
N          14.15349993131411    1.60651113016974   -6.63144726524282
C          13.62156916711499    0.97888579058362   -5.52677455271932
C          14.24795719424976    1.11692566699741   -4.28514895564895
C          13.73133898558787    0.49271553599405   -3.17416563494628
C          12.57435184347753   -0.28886614537798   -3.26569037321080
C          12.02572989385284   -0.95606247622716   -2.11372197326495
N          12.56137335043493   -0.86785662266674   -0.95668406567564
N          12.01487340313976   -1.51454584365004    0.06655471890898
C          12.53488047586557   -1.46556174431906    1.33531282967045
C          13.66720511398464   -0.70055364742436    1.62776448353199
C          14.16751071783694   -0.66760139397610    2.90811849631354
C          13.57635022558649   -1.40985537405508    3.93541154574939
C          14.11253965399630   -1.36765659631849    5.28922618216991
C          14.52720279840404   -0.16745205364386    5.86857839080647
C          14.97972291319165   -0.09397527379459    7.24902736613245
C          15.05627472037389   -1.21233902277799    8.06510389751154
C          15.51442811476070   -1.02849074107394    9.47348771161993
O          15.96873989379410   -2.18582593066782   10.18206547996232
C          17.18553108720659   -1.54742599108396   10.55569438676578
C          16.89601018727633   -0.34052454406775    9.64712784705730
C          16.92129580106654    1.01581797611884   10.22098120217244
C          17.55098737517964    2.12652167612837    9.73323580541898
C          17.35161815636015    3.27062814243332   10.51948123359860
C          16.56587936912944    3.03843976057112   11.61823309460883
C          16.18988030882459    4.03476814088422   12.62750563210405
O          16.55450006238718    5.17881905989795   12.56565413090192
O          15.41196602902390    3.60892967911703   13.64042414953835
S          16.05924426455974    1.37333026561690   11.67409681248513
C          14.68864746907676   -2.44169820763878    7.48607457796008
C          14.71582227210060   -3.68815424742699    8.08554366854102
S          14.24072830298402   -4.91989360645675    7.01715899047555
C          13.96776278942209   -3.82746754586516    5.74394638747544
C          14.22521232485867   -2.51719031901551    6.10869719593862
N          15.28780680944571    1.16940524563885    7.60514096316358
S          15.02829152290861    2.13074274742540    6.35123982184944
N          14.52383519741801    1.04724469540246    5.29380319104901
C          12.43616884912608   -2.16108669315729    3.63636529133019
C          11.91846397381657   -2.18621971274818    2.36140732338730
C          11.95384977538306   -0.41763513760300   -4.51251338357689
C          12.46494546308101    0.20399940440206   -5.62857714766842
H          13.62956568098303    1.99156663016002   -9.77723833538978
H          15.02001913678323    2.70808087440705   -8.76941046120407
H          15.00251594214386    2.16160638687578   -6.50514809522124
H          15.14326430925407    1.71786037717844   -4.20475197970310
H          14.20928748931620    0.59393121909798   -2.21319920496765
H          11.11816183073703   -1.55517401154637   -2.27194111978677
H          11.17507545166392   -2.07898529659598   -0.08537172121873
H          14.13200459079329   -0.14248659112976    0.83151904407352
H          15.04013254355533   -0.07324836552962    3.12710362046200
H          14.73357707946897   -0.51286341178529   10.05479372353759
H          18.06145679744305   -2.14640984231416   10.29774130479859
H          17.19843093483712   -1.30684245986440   11.62445697687105
H          17.47685816779328   -0.35834939282647    8.72423924947062
H          18.13459054265902    2.11432621338572    8.83095585689087
H          17.76133676059327    4.24114493343540   10.30706780920134
H          15.18811736727250    2.67085985633529   13.57383407837146
H          15.00605008543667   -3.91472698525543    9.08966603679821
H          13.66927937977962   -4.19590649764646    4.78431141592189
H          11.92751642962589   -2.69353284134394    4.42597956777787
H          11.02619640118475   -2.75948786791298    2.15047971182004
H          11.05828557371969   -1.01628855406619   -4.60026194337135
H          11.99026508528389    0.10649270139661   -6.59147983211580
