# ORCA input file
# SCF done       -137.562438350941          0.000221943788
! CAM-B3LYP def2-SVP def2/J RIJCOSX Grid4 TightSCF
%maxcore 5000
%tddft
    Mode sTDDFT
    Ethresh 5.0
    maxcore 5000
end

%pal
  nprocs 6
  end
* xyz 0 1
   C       -6.24197         6.23263         1.90053
   C       -5.69846         7.22436         1.16323
   C       -4.26836         7.02677         0.97371
   C       -3.92348         5.88607         1.61006
   C       -5.17711         5.29994         2.24869
   O       -5.17432         4.27169         2.88887
   N       -2.78225         5.18015         1.80460
   C       -1.52727         5.43054         1.39045
   S       -1.14650         6.83255         0.44886
   C        0.52168         6.34281         0.42492
   N        1.41675         7.16609        -0.26767
   O        2.58675         6.83640        -0.29872
   O        0.94274         8.16102        -0.79147
   C        0.76445         5.18026         1.09913
   C       -0.40075         4.62170         1.66953
   C       -0.46100         3.41384         2.41700
   C        0.61395         2.64446         2.76144
   C        0.49801         1.45541         3.49057
   C        1.56103         0.66874         3.87713
   C        1.49863        -0.54135         4.60235
   C        2.71689        -1.10600         4.85164
   C        3.80121        -0.36764         4.33916
   S        3.23403         1.06426         3.52273
   C        5.15532        -0.67249         4.43857
   C        5.73592        -1.79702         5.05592
   C        7.10170        -1.82439         4.99463
   C        7.67081        -0.72123         4.33151
   S        6.39429         0.35635         3.77895
   C        8.97222        -0.33907         4.05686
   C       10.22443        -0.91139         4.31083
   C       11.37056        -0.15255         3.88783
   C       12.71880        -0.61135         4.06777
   N       13.72197         0.02977         3.45278
   C       13.48850         1.16136         2.84056
   C       12.17585         1.73219         2.85513
   N       11.16139         1.03987         3.32197
   C       11.94595         3.02568         2.32935
   N       11.79258         4.07495         1.89465
   C       14.53877         1.80088         2.13586
   N       15.35878         2.34699         1.55179
   C       13.01889        -1.78175         4.80732
   C       11.90341        -2.56491         5.17906
   C       10.53705        -2.15167         4.93749
   N        9.67766        -3.06024         5.38659
   S       10.48019        -4.29219         6.04523
   N       11.96736        -3.74222         5.79929
   C       14.34808        -2.13123         5.16685
   C       14.86785        -3.35371         5.45379
   C       16.26747        -3.21975         5.81256
   C       16.63323        -1.92629         5.78948
   C       15.44923        -1.11397         5.43087
   O       15.33684         0.08385         5.47480
   H       -7.26517         6.11525         2.19755
   H       -6.22218         8.06852         0.75170
   H       -3.64656         7.70057         0.41740
   H       -2.93996         4.34090         2.36313
   H        1.74862         4.75497         1.16531
   H       -1.43696         3.07486         2.74115
   H        1.61036         2.94902         2.47435
   H       -0.49046         1.11998         3.77721
   H        0.55923        -0.95938         4.91794
   H        2.85623        -2.02572         5.39012
   H        5.14341        -2.55971         5.52832
   H        7.71845        -2.60247         5.40326
   H        9.05708         0.61069         3.53913
   H       14.34742        -4.29093         5.39203
   H       16.89463        -4.06105         6.05043
   H       17.58866        -1.49627         6.01988
*
