# ORCA input file
# SCF done       -206.456092326380          0.000393127182
! CAM-B3LYP def2-SVP def2/J RIJCOSX Grid4 TightSCF
%maxcore 5000
%tddft
    Mode sTDDFT
    Ethresh 5.0
    maxcore 5000
end

%pal
  nprocs 6
  end
* xyz 0 1
   C       -3.38599        -1.36353        -1.85419
   C       -3.59052        -2.49613        -1.11080
   C       -3.08706        -3.76796        -1.45347
   N       -2.69813        -4.82361        -1.68223
   C       -4.37263        -2.55199         0.06259
   N       -5.02282        -2.68283         0.99968
   C       -2.69814        -1.28909        -3.13516
   C       -2.85228         0.01959        -3.65842
   C       -2.31733         0.39866        -4.86613
   C       -1.60292        -0.55717        -5.59452
   C       -1.45148        -1.85996        -5.06171
   C       -1.98804        -2.24373        -3.83852
   S       -0.52569        -2.87052        -6.12642
   C       -0.35552        -1.56929        -7.25322
   C       -0.95974        -0.42763        -6.85781
   C       -3.61903         0.84742        -2.70994
   O       -3.84177         2.03515        -2.81020
   C       -3.92536        -0.04885        -1.56163
   C       -4.43887         0.37000        -0.37451
   C       -5.13919         1.60019        -0.18397
   C       -5.01671         2.32675         1.01733
   C       -5.68504         3.58913         1.22024
   N       -5.41413         4.30404         2.32452
   C       -4.60508         3.81415         3.23002
   C       -4.01921         2.51412         3.06835
   N       -4.21354         1.82563         1.97358
   C       -3.20485         1.97691         4.09713
   N       -2.55069         1.58546         4.95199
   C       -4.31318         4.58769         4.38076
   N       -4.06463         5.18571         5.32585
   C       -6.56590         4.13395         0.25509
   C       -6.73111         3.37131        -0.91804
   C       -6.03936         2.12013        -1.13164
   N       -6.41829         1.52753        -2.26433
   S       -7.48897         2.45850        -3.00372
   N       -7.56328         3.64391        -1.93095
   C       -7.26811         5.38607         0.44864
   C       -7.55110         6.20103        -0.66057
   C       -8.23466         7.37467        -0.47960
   C       -8.66166         7.76876         0.80186
   C       -8.39469         6.96569         1.90430
   C       -7.70364         5.78765         1.72131
   C       -9.33504         9.03843         0.68937
   C       -9.33405         9.43416        -0.66371
   C       -8.68105         8.37539        -1.52385
   C       -7.50136         8.93109        -2.33485
   C       -6.42009         9.53424        -1.44526
   C       -9.70549         7.64692        -2.42624
   C      -10.42056         8.51054        -3.45695
   C       -9.85695        10.64728        -1.03322
   C      -10.43697        11.48489        -0.06347
   C      -10.44664        11.06037         1.27679
   C       -9.89726         9.85765         1.66093
   C      -11.03708        12.75249        -0.37794
   C      -11.10588        13.32307        -1.60544
   C      -11.71902        14.55203        -1.94937
   S      -11.27328        15.25592        -3.47480
   C      -12.26125        16.65982        -3.24523
   C      -12.94479        16.57276        -2.02075
   C      -12.65598        15.37238        -1.29369
   C      -13.35103        15.11862        -0.10004
   C      -14.24057        16.05385         0.38294
   C      -14.93773        15.79792         1.58460
   N      -15.50267        15.59217         2.56120
   C      -14.47833        17.26793        -0.30748
   C      -13.85250        17.51312        -1.49324
   C      -12.33440        17.69477        -4.20146
   C      -11.65819        17.70627        -5.37908
   C      -11.73889        18.72524        -6.36636
   C      -12.54189        19.91527        -6.31816
   C      -12.34820        20.63546        -7.48180
   C      -12.90073        21.85609        -7.92677
   C      -12.51184        22.31820        -9.15482
   C      -12.87373        23.48912        -9.89378
   C      -12.19484        23.48622       -11.09767
   C      -11.38383        22.30746       -11.14440
   C      -11.56406        21.58629        -9.97345
   C      -11.01030        20.37145        -9.53145
   C      -11.40054        19.90253        -8.29981
   C      -11.04898        18.73066        -7.57422
   C      -12.30252        24.50358       -12.11561
   C      -11.65667        24.50712       -13.27851
   H       -2.44872         1.40309        -5.23797
   H       -1.83874        -3.24493        -3.46975
   H        0.19651        -1.74289        -8.15645
   H       -0.95791         0.48342        -7.42851
   H       -4.29152        -0.22287         0.51939
   H       -7.20606         5.90404        -1.63744
   H       -8.73163         7.25137         2.88916
   H       -7.51769         5.14662         2.56738
   H       -7.86599         9.69787        -3.01971
   H       -7.07365         8.12261        -2.93103
   H       -6.82456        10.34903        -0.84834
   H       -5.60770         9.92438        -2.05413
   H       -6.01412         8.78475        -0.76974
   H      -10.45429         7.18634        -1.77655
   H       -9.17680         6.84038        -2.93850
   H      -11.04358         9.25809        -2.97342
   H      -11.06460         7.88053        -4.06683
   H       -9.71538         9.00805        -4.11761
   H       -9.81382        10.96804        -2.06145
   H      -10.89178        11.70415         2.02210
   H       -9.90021         9.55847         2.69811
   H      -11.44358        13.28139         0.47138
   H      -10.60984        12.83754        -2.43625
   H      -13.22267        14.18850         0.42849
   H      -15.17474        17.97834         0.11152
   H      -14.05473        18.42437        -2.03414
   H      -12.98765        18.51916        -3.95554
   H      -11.00305        16.87394        -5.60742
   H      -13.19021        20.19705        -5.50860
   H      -13.60672        22.39500        -7.31040
   H      -13.56388        24.24116        -9.55712
   H      -10.73999        22.02900       -11.95849
   H      -10.30493        19.83166       -10.14755
   H      -10.36330        17.97456        -7.91007
   H      -12.97711        25.31625       -11.87608
   H      -10.97695        23.72205       -13.56199
   H      -11.78784        25.30177       -13.99212
*
