# ORCA input file
# SCF done       -211.166325236783          0.000402897742
! CAM-B3LYP def2-SVP def2/J RIJCOSX Grid4 TightSCF
%maxcore 5000
%tddft
    Mode sTDDFT
    Ethresh 5.0
    maxcore 5000
end

%pal
  nprocs 6
  end
* xyz 0 1
   C       -2.60650        -0.97045        -0.66547
   C       -3.08347        -2.20524        -1.01761
   C       -2.26771        -3.33549        -1.23231
   N       -1.65167        -4.28690        -1.41436
   C       -4.44274        -2.49953        -1.25800
   N       -5.52205        -2.80587        -1.50123
   C       -1.20599        -0.59709        -0.52897
   C       -1.12736         0.80190        -0.31245
   C        0.06922         1.45757        -0.14826
   C        1.24311         0.70071        -0.20519
   C        1.15429        -0.69612        -0.41861
   C       -0.05517        -1.36104        -0.58133
   S        2.72718        -1.42911        -0.44152
   C        3.47433         0.10764        -0.17332
   C        2.59437         1.12735        -0.06989
   C       -2.48373         1.37541        -0.26673
   O       -2.76848         2.52421        -0.00217
   C       -3.40698         0.22490        -0.46971
   C       -4.75187         0.27731        -0.28286
   C       -5.51769         1.48471        -0.26232
   C       -6.59852         1.64298         0.62667
   C       -7.31204         2.89155         0.74117
   N       -8.34317         2.98585         1.59645
   C       -8.65091         1.96064         2.35038
   C       -7.89830         0.74044         2.27886
   N       -6.91415         0.60854         1.42801
   C       -8.23148        -0.34137         3.13296
   N       -8.52586        -1.18455         3.85002
   C       -9.74674         2.06743         3.24242
   N      -10.62024         2.12532         3.98143
   C       -6.98036         4.01971        -0.04612
   C       -5.99365         3.80884        -1.02862
   C       -5.26907         2.56137        -1.13213
   N       -4.39448         2.57493        -2.13831
   S       -4.42909         4.01424        -2.83562
   N       -5.56890         4.69195        -1.94028
   C       -7.58515         5.31912         0.16237
   C       -7.79814         6.17792        -0.92888
   C       -8.30446         7.43214        -0.70964
   C       -8.60714         7.86879         0.59341
   C       -8.42231         7.01842         1.67637
   C       -7.91759         5.75544         1.45404
   C       -9.02580         9.24770         0.52751
   C       -8.99367         9.66601        -0.81726
   C       -8.62753         8.51077        -1.72135
   C       -7.43320         8.83003        -2.63150
   C       -6.17258         9.15901        -1.84001
   C       -9.84889         8.01609        -2.53278
   C      -10.45231         9.02867        -3.49693
   C       -9.23944        10.97873        -1.13531
   C       -9.53518        11.90423        -0.11988
   C       -9.61404        11.45644         1.20726
   C       -9.35964        10.14283         1.53646
   C       -9.72511        13.28498        -0.48688
   C       -9.67393        14.33472         0.35997
   C       -9.82729        15.70151         0.00337
   S       -9.26061        16.90343         1.13100
   C       -9.69099        18.20302         0.06749
   C      -10.27059        17.71235        -1.09531
   C      -10.36178        16.30275        -1.12752
   S      -11.14068        15.35752        -2.39811
   C      -12.29097        16.59880        -3.10483
   C      -11.44683        17.39226        -4.06003
   O      -11.47973        17.25419        -5.25403
   C      -10.44833        18.32641        -3.38773
   O      -10.71605        18.60736        -2.03367
   C       -9.44493        19.56863         0.36865
   C       -8.84596        19.99420         1.50301
   C       -8.54430        21.34875         1.82921
   C       -7.91132        21.76803         2.99294
   C       -7.76869        23.18418         2.95466
   C       -7.21334        24.07404         3.84254
   C       -7.22626        25.43633         3.49516
   C       -6.75232        26.56014         4.15845
   C       -7.01570        27.71812         3.36225
   C       -7.65391        27.30451         2.20669
   C       -7.80709        25.88315         2.24514
   C       -8.36265        24.99807         1.35872
   C       -8.34897        23.63107         1.70408
   C       -8.81432        22.51118         1.03503
   C       -6.68330        29.08508         3.68470
   C       -6.06980        29.49267         4.79235
   H        0.09696         2.52341         0.01803
   H       -0.07255        -2.42757        -0.73251
   H        4.54409         0.15260        -0.10773
   H        2.87593         2.15115         0.09822
   H       -5.30815        -0.62957        -0.08237
   H       -7.56229         5.83826        -1.92411
   H       -8.64941         7.34530         2.67970
   H       -7.73376         5.10377         2.29289
   H       -7.68639         9.67911        -3.26750
   H       -7.24108         7.97003        -3.27583
   H       -6.34746        10.00116        -1.17347
   H       -5.36251         9.41873        -2.51759
   H       -5.86055         8.30543        -1.24299
   H      -10.61995         7.70576        -1.82262
   H       -9.53861         7.12968        -3.09051
   H      -10.84256         9.88968        -2.96129
   H      -11.27590         8.56497        -4.03563
   H       -9.72157         9.36653        -4.22684
   H       -9.17499        11.32873        -2.15487
   H       -9.87994        12.15361         1.98654
   H       -9.40714         9.81684         2.56465
   H       -9.85677        13.47197        -1.54405
   H       -9.43847        14.17430         1.40333
   H      -12.71066        17.19404        -2.29666
   H      -13.06306        16.03784        -3.62774
   H      -10.47632        19.28890        -3.90794
   H       -9.44186        17.90314        -3.52000
   H       -9.76356        20.26564        -0.39282
   H       -8.55284        19.25381         2.23826
   H       -7.57905        21.13194         3.79283
   H       -6.77803        23.74775         4.77675
   H       -6.26502        26.56221         5.11628
   H       -7.98439        27.93887         1.40432
   H       -8.79754        25.32361         0.42396
   H       -9.29914        22.50895         0.07589
   H       -6.97410        29.81200         2.93631
   H       -5.76195        28.80887         5.56469
   H       -5.85364        30.53251         4.96553
*
