# ORCA input file
# SCF done       -192.385448994964          0.000606002850
! CAM-B3LYP def2-SVP def2/J RIJCOSX Grid4 TightSCF
%maxcore 5000
%tddft
    Mode sTDDFT
    Ethresh 5.0
    maxcore 5000
end

%pal
  nprocs 6
  end
* xyz 0 1
   C      -16.50499       -12.14338        -1.18474
   C      -15.55094       -11.93108        -0.21510
   C      -14.89760       -12.96121         0.48909
   N      -14.32699       -13.75105         1.09799
   C      -15.08813       -10.67605         0.22657
   N      -14.65178        -9.69967         0.64851
   C      -16.97718       -13.45544        -1.62421
   C      -17.97714       -13.27072        -2.60963
   C      -18.61211       -14.31918        -3.22736
   C      -18.23996       -15.61688        -2.85816
   C      -17.24049       -15.79186        -1.87368
   C      -16.60029       -14.72945        -1.24585
   S      -16.92784       -17.47493        -1.57200
   C      -18.12765       -17.91346        -2.75881
   C      -18.73319       -16.85677        -3.34994
  Br      -18.46593       -19.72590        -3.10633
   C      -18.17502       -11.82293        -2.83622
   O      -18.96438       -11.31840        -3.61149
   C      -17.21850       -11.14655        -1.93960
   C      -17.02982        -9.77972        -1.88118
   C      -17.72016        -8.83973        -2.63784
   C      -17.44161        -7.48624        -2.57762
   C      -18.05444        -6.45813        -3.32682
   C      -17.54046        -5.21434        -3.09251
   C      -16.50025        -5.20411        -2.14203
   S      -16.20135        -6.81794        -1.54129
   C      -15.74047        -4.12783        -1.70884
   C      -15.79004        -2.78729        -2.14444
   C      -14.85688        -1.98544        -1.55621
   C      -14.02662        -2.64533        -0.61786
   S      -14.49520        -4.33034        -0.50421
   C      -12.97755        -2.06535         0.05824
   C      -12.12740        -2.65753         1.00042
   S      -10.71003        -1.74105         1.52409
   C      -10.21953        -3.03210         2.55256
   C      -11.13813        -4.10049         2.50004
   C      -12.19555        -3.89781         1.62966
   S      -10.69417        -5.42191         3.54564
   C       -9.26441        -4.55020         4.03144
   C       -8.21004        -4.84505         4.87662
   C       -7.25209        -3.83124         4.90433
   S       -7.70789        -2.47747         3.87432
   C       -9.15577        -3.29093         3.40677
   C       -6.05004        -3.87866         5.61860
   C       -5.00708        -2.98351         5.58510
   C       -3.77407        -3.13263         6.26647
   C       -2.86326        -2.15691         5.99405
   C       -3.33269        -1.17714         5.09515
   S       -4.98069        -1.52024         4.62006
   C       -2.63864        -0.09527         4.58253
   C       -3.11620         0.88201         3.68727
   C       -2.17397         1.79821         3.32120
   C       -0.90391         1.57939         3.89997
   S       -0.95482         0.19430         4.96373
   C        0.23931         2.32021         3.66675
   C        1.48426         2.00585         4.19850
   C        2.67927         2.66731         4.01124
   C        2.98931         3.96076         3.46839
   C        2.18320         5.07637         3.46488
   C        2.57164         6.32454         2.94193
   N        2.82618         7.35808         2.50950
   C        0.91739         5.14411         4.07876
   N       -0.09782         5.27467         4.60027
   C        4.40726         3.95308         3.10653
   C        4.99467         2.76355         3.60486
   C        3.94712         1.94206         4.24886
   O        4.08507         0.87720         4.81199
   C        6.32806         2.47732         3.44920
   C        7.11811         3.40298         2.75760
   C        6.51964         4.58065         2.25350
   C        5.17088         4.87564         2.41982
   S        7.67329         5.57758         1.41959
   C        8.92789         4.41483         1.75834
   C        8.50691         3.33539         2.45834
  Br       10.67420         4.73474         1.15183
   H      -19.36993       -14.14542        -3.97518
   H      -15.84350       -14.91719        -0.50291
   H      -19.49508       -16.94526        -4.10276
   H      -16.27273        -9.39768        -1.20715
   H      -18.49310        -9.17233        -3.31537
   H      -18.84898        -6.66913        -4.02012
   H      -17.88160        -4.31712        -3.57698
   H      -16.49532        -2.45393        -2.88387
   H      -14.73444        -0.93844        -1.77024
   H      -12.76626        -1.03244        -0.18799
   H      -12.98533        -4.60746         1.47393
   H       -8.11330        -5.75502         5.43921
   H       -5.91265        -4.75333         6.24193
   H       -3.59699        -3.96595         6.92289
   H       -1.86892        -2.10874         6.40174
   H       -4.13566         0.87262         3.34261
   H       -2.34782         2.62085         2.65113
   H        0.13772         3.15476         2.98862
   H        1.56739         1.07247         4.74824
   H        6.75043         1.56721         3.84527
   H        4.75923         5.78432         2.01296
   H        9.14661         2.52311         2.75167
*
