# ORCA input file
# SCF done       -216.411347056468          0.000763714015
! CAM-B3LYP def2-SVP def2/J RIJCOSX Grid4 TightSCF
%maxcore 5000
%tddft
    Mode sTDDFT
    Ethresh 5.0
    maxcore 5000
end

%pal
  nprocs 6
  end
* xyz 0 1
   C        1.64300         2.07134         3.48488
   C        2.29324         2.57388         2.38628
   C        3.52428         2.08035         1.90368
   N        4.52226         1.73373         1.45353
   C        1.85958         3.62016         1.54393
   N        1.60750         4.44825         0.78733
   C        2.11577         0.94069         4.27418
   C        1.13098         0.62453         5.23755
   C        1.27092        -0.40388         6.13718
   C        2.44800        -1.15693         6.08715
   C        3.43243        -0.83058         5.12446
   C        3.28728         0.20741         4.21305
   S        4.81162        -1.88252         5.23946
   C        4.05607        -2.73382         6.56043
   C        2.83476        -2.25798         6.89959
  Br        4.95141        -4.17148         7.36670
   C       -0.00856         1.55545         5.10983
   O       -1.01651         1.50431         5.78358
   C        0.36309         2.50672         4.03630
   C       -0.25188         3.65261         3.61272
   C       -1.47688         4.31905         3.91995
   C       -1.68252         5.55757         3.26715
   C       -2.84029         6.25623         3.47127
   C       -3.83471         5.75387         4.33327
   C       -3.64466         4.54273         4.98825
   C       -2.48000         3.83633         4.77980
   C       -4.95345         6.66402         4.31882
   C       -4.65687         7.73275         3.45129
   C       -3.25453         7.59636         2.90174
   C       -2.29041         8.65100         3.49508
   C       -2.61470        10.10456         3.17964
   C       -3.22826         7.60450         1.36605
   C       -4.07446         6.48827         0.76436
   C       -5.60607         8.68763         3.17810
   C       -6.86460         8.61663         3.79345
   C       -7.11985         7.57614         4.69706
   C       -6.18566         6.59568         4.95543
   C       -7.91952         9.57379         3.52600
   C       -7.91901        10.49396         2.55204
   C       -9.03191        11.39680         2.27372
   C       -8.88775        12.75333         1.94132
   N       -7.77593        13.56956         1.96300
   C       -6.49773        13.14900         2.48294
   C       -5.50158        12.81229         1.37523
   C       -8.13370        14.82899         1.52139
   C       -9.52235        14.82470         1.23557
   C      -10.00870        13.51062         1.53386
   C      -11.28020        12.95641         1.49518
   C      -11.43000        11.63911         1.87835
   C      -10.32748        10.88333         2.25343
   C      -10.17577        15.94635         0.74773
   C       -9.43350        17.08815         0.52055
   C       -8.07215        17.09843         0.77445
   C       -7.37604        15.99493         1.27920
   C       -5.95457        16.10518         1.52608
   C       -5.10746        16.92652         0.87279
   C       -3.69317        16.99331         1.10460
   C       -2.96547        16.16408         1.95957
   C       -1.55916        16.31750         2.03274
   N       -0.77814        15.53426         2.76597
   C       -1.31558        14.52393         3.53413
   C       -2.73575        14.43168         3.47610
   N       -3.51917        15.18208         2.75077
   C       -3.37473        13.44149         4.27424
   N       -3.91269        12.65137         4.90422
   C       -0.51617        13.67206         4.28105
   N        0.13586        12.94113         4.89068
   C       -0.77150        17.28845         1.33542
   C       -1.50999        18.14707         0.46711
   C       -2.93654        17.97028         0.36809
   N       -3.46211        18.83568        -0.48793
   S       -2.29427        19.77240        -1.10411
   N       -1.04676        19.11244        -0.30046
   C        0.53200        17.10054         1.67714
   C        0.61070        15.94622         2.65159
   C        1.48596        14.84439         2.02794
   C        2.79078        15.44675         1.60554
   C        3.97702        14.78366         1.55366
   S        5.25915        15.78211         1.00152
   C        4.19157        17.11932         0.84977
   C        2.91516        16.80634         1.19805
   C        1.75706        17.76364         1.18590
   C        1.17663        16.38948         3.97883
   C        0.46155        16.78659         5.01334
   H        0.49678        -0.61814         6.85726
   H        4.06977         0.41484         3.50303
   H        2.23009        -2.66436         7.68968
   H        0.31896         4.20151         2.87197
   H       -0.92095         5.93609         2.59987
   H       -4.40336         4.15183         5.64925
   H       -2.33506         2.89542         5.28168
   H       -1.28629         8.42283         3.13011
   H       -2.28279         8.52741         4.58076
   H       -2.64546        10.28220         2.10691
   H       -1.84206        10.74113         3.60731
   H       -3.56385        10.39635         3.62062
   H       -2.19480         7.49859         1.02990
   H       -3.60147         8.56473         1.00763
   H       -3.70601         5.51370         1.07663
   H       -4.04002         6.53579        -0.32166
   H       -5.11140         6.57999         1.08099
   H       -5.38959         9.48778         2.48867
   H       -8.08520         7.53336         5.18123
   H       -6.41140         5.78529         5.63232
   H       -8.77295         9.52075         4.19055
   H       -7.08499        10.55008         1.86694
   H       -6.66993        12.27129         3.11056
   H       -6.09094        13.92216         3.13625
   H       -5.91846        12.06981         0.69739
   H       -4.58808        12.41863         1.81435
   H       -5.25796        13.69991         0.79668
   H      -12.12632        13.54647         1.17855
   H      -12.40710        11.17981         1.86968
   H      -10.46456         9.84047         2.49889
   H      -11.23586        15.91682         0.54848
   H       -9.91074        17.98025         0.14337
   H       -7.52095        18.01032         0.60423
   H       -5.53032        15.48672         2.29429
   H       -5.45397        17.58005         0.08455
   H        0.96748        14.43350         1.15442
   H        1.64363        14.03470         2.74312
   H        4.16883        13.75959         1.80419
   H        4.56835        18.06325         0.51029
   H        1.57526        18.16335         0.18390
   H        1.99382        18.62281         1.82613
   H        2.25592        16.37756         4.01512
   H       -0.61592        16.82123         5.01029
   H        0.93669        17.09329         5.92805
*
