# ORCA input file
# SCF done       -182.877427950827          0.000582110766
! CAM-B3LYP def2-SVP def2/J RIJCOSX Grid4 TightSCF
%maxcore 5000
%tddft
    Mode sTDDFT
    Ethresh 5.0
    maxcore 5000
end

%pal
  nprocs 6
  end
* xyz 0 1
   C       -0.47818         0.94129        -0.75432
   C       -0.56065         1.20776         0.55513
   C       -1.73823         1.20705         1.37809
   C       -1.50744         1.46874         2.68166
   C       -0.13652         1.68957         3.00284
   S        0.84784         1.60063         1.55509
   C        0.41334         1.88134         4.24313
   C       -0.23741         1.86895         5.50741
   C        0.60885         1.93324         6.56219
   C        1.99364         1.96977         6.20938
   S        2.14033         2.07638         4.45740
   C        3.03403         1.94146         7.08548
   C        4.43577         1.82046         6.78821
   N        5.26449         2.45403         7.58756
   C        6.57230         2.43592         7.26415
   C        7.59495         3.06689         7.93070
   S        9.07756         2.89134         7.09846
   C        8.37856         1.94841         5.85438
   C        7.03551         1.76451         6.06717
   N        6.19613         0.98867         5.34970
   C        4.93668         0.98440         5.69980
   C        4.04803         0.06564         5.02581
   C        4.22447        -0.31282         3.74917
   C        3.22649        -1.06909         3.02911
   N        2.00828        -1.06644         3.51887
   C        1.03279        -1.57222         2.73898
   C       -0.30489        -1.65251         3.04134
   S       -1.20939        -2.19485         1.69624
   C        0.17454        -2.34153         0.70212
   C        1.31411        -1.99673         1.38402
   N        2.58622        -2.08166         0.93687
   C        3.53105        -1.68830         1.74946
   C        4.91491        -1.91428         1.33972
   C        5.89601        -2.19953         2.29604
   C        7.19114        -2.41996         1.89062
   C        7.52622        -2.33438         0.52909
   C        6.55421        -2.07126        -0.42601
   C        5.25132        -1.87326        -0.01464
   C        8.94874        -2.56336         0.39176
   C        9.49569        -2.77744         1.66806
   C        8.42023        -2.69131         2.73474
   C        8.36389        -4.04901         3.46427
   C        7.31043        -4.18434         4.55659
   C        8.61493        -1.48037         3.67352
   C        9.82661        -1.54226         4.59493
   C       10.83081        -3.07833         1.79841
   C       11.65307        -3.14949         0.66418
   C       11.09449        -2.89790        -0.59395
   C        9.75234        -2.61226        -0.73783
   C       13.05061        -3.48542         0.84758
   C       13.89478        -3.90403        -0.10777
   C       15.28561        -4.26447         0.07956
   C       15.92536        -4.99903        -0.93041
   C       17.23736        -5.37956        -0.78013
   C       17.96023        -4.98115         0.35750
   C       17.34511        -4.24300         1.35730
   C       16.01471        -3.90234         1.21750
   C       19.33207        -5.42266         0.21319
   C       19.45641        -6.09468        -1.01208
   C       18.11558        -6.18590        -1.71093
   C       18.15658        -5.59887        -3.12870
   C       18.67301        -4.16464        -3.14498
   C       17.71675        -7.68050        -1.72127
   C       16.31113        -7.99181        -2.21781
   C       20.67185        -6.59735        -1.41032
   C       21.79816        -6.43365        -0.59325
   C       21.65583        -5.76434         0.62591
   C       20.43713        -5.25953         1.03497
   C       23.07097        -6.97080        -1.05397
   C       24.23783        -6.92164        -0.42097
   H       -1.35987         0.69982        -1.32138
   H        0.46123         0.95545        -1.27553
   H       -2.70293         0.99512         0.95235
   H       -2.27014         1.49974         3.43955
   H       -1.30689         1.79139         5.59172
   H        0.30359         1.90832         7.59365
   H        2.80465         2.07159         8.13521
   H        7.54348         3.63402         8.83714
   H        8.97324         1.59853         5.03585
   H        3.18764        -0.29531         5.57113
   H        5.08475         0.04121         3.20068
   H       -0.79129        -1.41550         3.96523
   H        0.08280        -2.68291        -0.30825
   H        5.62213        -2.25590         3.33801
   H        6.81318        -2.01549        -1.47286
   H        4.47051        -1.66504        -0.72962
   H        9.34782        -4.23903         3.89669
   H        8.19048        -4.82082         2.70898
   H        7.39607        -3.38972         5.29293
   H        7.44378        -5.13597         5.06813
   H        6.30843        -4.16990         4.13786
   H        7.71354        -1.36084         4.27688
   H        8.69479        -0.58971         3.04390
   H        9.81125        -0.68746         5.26801
   H       10.75225        -1.50757         4.02695
   H        9.81861        -2.44285         5.20300
   H       11.26354        -3.28947         2.76538
   H       11.72482        -2.92234        -1.46967
   H        9.33315        -2.43437        -1.71724
   H       13.39968        -3.42206         1.87024
   H       13.52654        -4.03751        -1.11693
   H       15.37074        -5.25307        -1.82228
   H       17.90028        -3.93024         2.22949
   H       15.53828        -3.31718         1.98920
   H       17.15249        -5.61989        -3.55475
   H       18.79916        -6.22439        -3.75232
   H       18.04070        -3.52490        -2.53301
   H       18.67624        -3.77660        -4.16127
   H       19.68698        -4.11676        -2.75394
   H       17.81865        -8.05973        -0.70077
   H       18.44075        -8.21253        -2.34304
   H       15.56349        -7.54408        -1.56898
   H       16.15857        -9.06929        -2.21457
   H       16.16028        -7.63412        -3.23308
   H       20.77311        -7.11436        -2.35475
   H       22.51637        -5.63529         1.26384
   H       20.34895        -4.74454         1.98035
   H       23.02586        -7.45905        -2.02064
   H       24.36210        -6.45807         0.54253
   H       25.12476        -7.35523        -0.85036
*
