# ORCA input file
# SCF done       -195.205910762543          0.000586455799
! CAM-B3LYP def2-SVP def2/J RIJCOSX Grid4 TightSCF
%maxcore 5000
%tddft
    Mode sTDDFT
    Ethresh 5.0
    maxcore 5000
end

%pal
  nprocs 6
  end
* xyz 0 1
   C       -0.25891        -1.12378        -5.39284
   S       -1.47073        -0.42171        -4.40950
   C       -1.46793         1.01354        -5.31807
   C       -0.55772         0.96107        -6.34765
   C        0.14995        -0.29504        -6.40978
   C        1.12948        -0.49125        -7.44915
   C        1.37310         0.59161        -8.28411
   C        0.69859         1.81247        -8.21183
   C       -0.28260         2.01594        -7.26907
   O       -1.02150         3.13191        -7.11415
   C       -0.79948         4.21706        -7.98745
   C        1.83675        -1.69431        -7.74092
   C        1.67872        -2.94273        -7.22479
   C        2.42387        -4.04111        -7.71281
   N        3.43004        -3.88739        -8.57680
   C        3.96420        -5.10324        -8.74893
   C        3.26542        -6.11112        -7.93842
   C        3.84886        -7.44035        -8.14032
   O        3.49966        -8.49759        -7.64737
   C        4.93747        -7.17241        -9.09123
   C        4.97447        -5.74102        -9.44040
   N        5.96305        -5.48964       -10.32766
   C        6.52980        -6.65668       -10.54908
   C        5.93780        -7.74688        -9.81656
   C        2.25296        -5.45428        -7.29103
   C        1.29901        -6.02486        -6.39508
   C        0.05572        -5.55605        -6.16232
   C       -0.90514        -6.08824        -5.23253
   C       -2.09551        -5.41114        -5.07243
   C       -3.06690        -5.86656        -4.16322
   C       -4.32830        -5.38941        -3.82874
   C       -5.03177        -4.16655        -4.31404
   C       -4.20669        -2.89596        -4.05719
   N       -3.83548        -2.82540        -2.65559
   C       -5.39778        -4.29634        -5.81460
   N       -6.33227        -5.35810        -6.11473
   C       -4.90447        -6.34559        -2.91709
   C       -6.13889        -6.44071        -2.38663
   C       -6.53771        -7.63966        -1.59425
   C       -5.40259        -8.50557        -1.15898
   C       -4.17363        -8.40243        -1.69885
   C       -3.89727        -7.38265        -2.64145
   C       -2.79574        -7.09098        -3.41662
   C       -1.56804        -7.76930        -3.60126
   C       -0.65475        -7.27882        -4.47340
   C       -7.42691        -8.39585        -2.56451
   C       -6.95182        -9.27615        -3.45525
   C       -7.80118       -10.03169        -4.32347
   N       -9.11914        -9.92160        -4.28953
   C       -9.59256       -10.91821        -5.06916
   C       -8.50047       -11.73736        -5.60133
   C       -9.02555       -12.83809        -6.41946
   O       -8.41799       -13.71521        -6.99443
   C      -10.48597       -12.60782        -6.36004
   C      -10.78567       -11.43030        -5.52490
   N      -12.12106       -11.19783        -5.48324
   C      -12.65282       -12.13336        -6.23422
   C      -11.68918       -13.03992        -6.82008
   C       -7.33479       -11.14276        -5.18492
   C       -5.99114       -11.53642        -5.44091
   C       -4.94322       -10.68829        -5.59939
   C       -3.60664       -11.11304        -5.80201
   S       -3.19984       -12.77153        -5.44772
   C       -1.58597       -12.55961        -5.91893
   C       -1.33334       -11.27821        -6.35796
   C       -2.48137       -10.41958        -6.28076
   C       -2.36268        -9.08703        -6.75864
   C       -1.15309        -8.70182        -7.29574
   C       -0.02459        -9.53141        -7.35824
   C       -0.08871       -10.81876        -6.88589
   O        0.90937       -11.72657        -6.88661
   C        2.12825       -11.38361        -7.51575
   C       -3.45459        -8.11309        -6.70771
   C       -3.80613        -7.35120        -7.73297
   H        0.08849        -2.09562        -5.11406
   H       -2.11161         1.83004        -5.06293
   H        2.11775         0.47892        -9.05835
   H        0.95669         2.58320        -8.91992
   H       -1.50137         4.99028        -7.68058
   H       -0.99659         3.93820        -9.02663
   H        0.22227         4.59713        -7.89833
   H        2.57079        -1.61819        -8.53411
   H        0.97387        -3.14796        -6.44052
   H        7.36153        -6.73374       -11.22782
   H        6.24920        -8.77217        -9.85912
   H        1.63262        -6.93856        -5.92166
   H       -0.29604        -4.70380        -6.73071
   H       -2.28048        -4.52463        -5.66162
   H       -5.96920        -4.06483        -3.75262
   H       -4.79143        -2.02420        -4.40264
   H       -3.28321        -2.92486        -4.63709
   H       -4.66144        -2.74030        -2.07253
   H       -3.24616        -2.01868        -2.48477
   H       -4.48934        -4.48294        -6.39139
   H       -5.83734        -3.35653        -6.16036
   H       -7.22689        -5.19165        -5.66675
   H       -5.97834        -6.24639        -5.77489
   H       -6.91746        -5.71779        -2.58865
   H       -7.14630        -7.34348        -0.73352
   H       -5.64251        -9.27940        -0.44682
   H       -3.38159        -9.07815        -1.41044
   H       -1.37675        -8.67916        -3.05140
   H        0.27704        -7.80075        -4.61942
   H       -8.48658        -8.18847        -2.54147
   H       -5.89499        -9.49952        -3.49576
   H      -13.72007       -12.18281        -6.36527
   H      -11.91992       -13.86411        -7.46594
   H       -5.83705       -12.59956        -5.58063
   H       -5.13128        -9.62642        -5.63411
   H       -0.88934       -13.37216        -5.87419
   H       -1.05847        -7.69341        -7.67041
   H        0.88923        -9.13518        -7.77079
   H        2.77266       -12.25267        -7.39760
   H        2.59758       -10.51253        -7.05601
   H        1.97548       -11.18454        -8.58017
   H       -3.95429        -8.00638        -5.75369
   H       -3.32437        -7.44951        -8.69186
   H       -4.60102        -6.62890        -7.66641
*
