# ORCA input file
# SCF done       -214.314528920317          0.000535490552
! CAM-B3LYP def2-SVP def2/J RIJCOSX Grid4 TightSCF
%maxcore 5000
%tddft
    Mode sTDDFT
    Ethresh 5.0
    maxcore 5000
end

%pal
  nprocs 6
  end
* xyz 0 1
   C       -1.35187         1.83662         5.70012
   C       -1.29489         2.07884         7.05113
   C       -0.35489         1.49057         7.92237
   N        0.37841         1.04960         8.68809
   C       -2.14730         2.94036         7.76938
   N       -2.80461         3.62257         8.42147
   C       -0.45708         0.94635         4.96827
   C       -0.80564         0.98076         3.59453
   C       -0.14647         0.24253         2.64238
   C        0.90764        -0.57390         3.06424
   C        1.24828        -0.60447         4.43732
   C        0.58240         0.14508         5.40057
   S        2.57519        -1.68394         4.73132
   C        2.66049        -2.07650         3.04917
   C        1.74203        -1.43327         2.29557
   C       -1.94338         1.89586         3.40764
   O       -2.48694         2.16416         2.35071
   C       -2.28169         2.40469         4.74253
   C       -3.31414         3.25270         5.05119
   C       -4.28616         3.85538         4.24084
   S       -4.42873         3.67708         2.50713
   C       -5.82379         4.69260         2.46553
   C       -6.15982         5.16161         3.72979
   C       -5.29581         4.69717         4.72630
   C       -5.48517         5.17372         6.13254
   C       -5.25657         6.67644         6.17840
   S       -6.31838         7.52110         4.94209
   O       -5.46580         8.18481         3.99596
   O       -7.29551         8.31613         5.63434
   C       -7.19363         6.16418         4.06113
   C       -6.50754         4.91097         1.21285
   C       -7.87846         4.96145         1.15060
   C       -8.51689         5.09256        -0.10128
   C       -9.86200         5.11479        -0.43144
   C      -11.00724         5.05514         0.52288
   C      -12.01965         6.19341         0.29535
   N      -12.61020         6.57107         1.56526
   C      -11.68136         3.67162         0.47951
   N      -10.78050         2.68480         1.04636
   C       -9.93309         5.17754        -1.87455
   C      -10.97244         5.12920        -2.72763
   C      -10.77508         5.09597        -4.20352
   C       -9.36502         5.36855        -4.64603
   C       -8.33508         5.40203        -3.78294
   C       -8.55626         5.25200        -2.39285
   C       -7.70668         5.18511        -1.30973
   C       -6.29545         5.14498        -1.20502
   C       -5.72240         4.99906         0.01413
   C      -11.76419         5.96815        -4.92795
   C      -12.04838         5.82298        -6.22438
   C      -12.99879         6.61625        -6.94823
   S      -14.17130         7.58769        -6.11343
   C      -14.91591         8.09051        -7.60901
   C      -14.25556         7.52521        -8.68638
   C      -13.17332         6.70211        -8.31303
   C      -12.38008         6.00755        -9.37496
   C      -13.28817         5.07906       -10.16611
   S      -14.78090         5.97160       -10.75959
   O      -15.92737         5.38833       -10.12258
   O      -14.75644         6.01432       -12.19417
   C      -14.58589         7.68351       -10.11248
   C      -16.09825         8.87505        -7.64745
   C      -16.58979         9.72886        -6.71570
   C      -15.99737        10.32633        -5.53544
   C      -14.68385        10.69255        -5.40092
   C      -14.16110        11.33491        -4.26136
   N      -13.68768        11.83250        -3.34187
   C      -13.74263        10.54000        -6.43975
   N      -12.97643        10.47206        -7.29189
   C      -17.09119        10.72451        -4.66017
   C      -18.30953        10.62272        -5.38297
   C      -18.03714        10.09103        -6.73090
   O      -18.81148         9.93251        -7.64487
   C      -19.51905        10.97828        -4.83603
   C      -19.52896        11.44203        -3.51696
   C      -18.30937        11.52644        -2.80130
   C      -17.08334        11.17753        -3.35555
   S      -18.56643        12.11452        -1.18951
   C      -20.26597        12.24620        -1.48188
   C      -20.63302        11.86678        -2.72532
   H       -0.43741         0.29264         1.60459
   H        0.88113         0.08441         6.43357
   H        3.40538        -2.77643         2.72370
   H        1.64548        -1.55265         1.23158
   H       -3.41706         3.49904         6.09851
   H       -4.81299         4.68254         6.83741
   H       -6.50949         4.95692         6.44955
   H       -4.23516         6.93522         5.91463
   H       -5.51994         7.10167         7.14185
   H       -7.64633         6.61997         3.18588
   H       -7.95878         5.80511         4.74547
   H       -8.47616         4.82361         2.03813
   H      -10.61696         5.18575         1.53554
   H      -12.76610         5.88752        -0.45784
   H      -11.49119         7.06881        -0.09190
   H      -13.16458         5.81178         1.94521
   H      -13.21207         7.37912         1.45882
   H      -11.98310         3.44571        -0.55844
   H      -12.58274         3.68391         1.09952
   H       -9.91516         2.65870         0.51641
   H      -11.19533         1.76024         1.01904
   H      -11.99586         5.06933        -2.38563
   H      -10.99014         4.05480        -4.50873
   H       -9.21799         5.49785        -5.70667
   H       -7.32683         5.55875        -4.13745
   H       -5.69227         5.21383        -2.09791
   H       -4.64883         4.95184         0.11617
   H      -12.23244         6.75604        -4.35495
   H      -11.54806         5.05289        -6.79782
   H      -11.55378         5.44117        -8.94316
   H      -11.94980         6.75614       -10.04632
   H      -13.66913         4.26836        -9.55100
   H      -12.80318         4.68632       -11.05465
   H      -15.51941         8.20515       -10.29669
   H      -13.78429         8.13556       -10.69173
   H      -16.74996         8.69708        -8.49781
   H      -20.42973        10.90180        -5.40943
   H      -16.17815        11.25317        -2.77542
   H      -20.89539        12.60516        -0.69091
   H      -21.64586        11.88088        -3.08498
*
