# ORCA input file
# SCF done       -202.480746286225          0.000601057942
! CAM-B3LYP def2-SVP def2/J RIJCOSX Grid4 TightSCF
%maxcore 5000
%tddft
    Mode sTDDFT
    Ethresh 5.0
    maxcore 5000
end

%pal
  nprocs 6
  end
* xyz 0 1
   C       -5.08523         1.29420        15.86144
   C       -6.24801         1.37113        16.58861
   C       -6.39316         0.87664        17.90133
   N       -6.58576         0.50061        18.96932
   C       -7.46082         1.95560        16.17157
   N       -8.48607         2.41308        15.92292
   C       -3.84068         0.70918        16.34997
   C       -2.84732         0.87772        15.35467
   C       -1.55696         0.43162        15.50830
   C       -1.23023        -0.21918        16.70182
   C       -2.22878        -0.38670        17.68955
   C       -3.53351         0.06934        17.53480
   S       -1.60550        -1.22250        19.07722
   C       -0.04596        -1.33788        18.33784
   C        0.01359        -0.77868        17.10967
   C       -3.43252         1.56543        14.19561
   O       -2.81312         1.87104        13.18097
   C       -4.84710         1.78544        14.51541
   C       -5.83656         2.31546        13.71431
   C       -5.80097         2.81897        12.41143
   N       -4.67305         2.92151        11.62883
   C       -4.99412         3.42268        10.43993
   C       -6.37392         3.67486        10.39156
   C       -6.88818         3.29899        11.64721
   C       -8.31067         3.38583        12.06810
   C       -7.13117         4.17960         9.28046
   C       -6.60004         4.56836         8.10353
   C       -7.31456         5.02604         6.94907
   C       -8.65598         5.09108         6.80926
   C       -9.37927         5.47810         5.62446
   C      -10.74817         5.32946         5.60725
   C      -11.49195         5.60263         4.43856
   C      -12.84172         5.48298         4.14582
   C      -13.98544         5.06418         5.01116
   C      -14.12763         3.52838         5.05910
   N      -12.95852         2.91810         5.66601
   C      -13.92514         5.62185         6.44175
   N      -15.27434         5.69565         6.98405
   C      -12.99470         5.81115         2.74562
   C      -14.07147         5.78691         1.93884
   C      -13.96774         6.07960         0.48385
   C      -12.60562         6.51901         0.03210
   C      -11.54373         6.55701         0.85531
   C      -11.67566         6.18154         2.21428
   C      -10.77500         6.05316         3.24759
   C       -9.37506         6.25488         3.31100
   C       -8.70765         5.97832         4.45597
   C      -14.99797         7.06462        -0.00827
   C      -15.61339         7.95795         0.76584
   C      -16.58637         8.92385         0.32315
   N      -16.83143        10.04261         1.08436
   C      -17.76733        10.80695         0.49687
   C      -18.15943        10.19511        -0.68773
   C      -17.41198         8.98165        -0.78604
   C      -17.59652         7.91358        -1.80803
   C      -19.11451        10.76685        -1.58486
   C      -19.23466        10.49947        -2.90660
   C      -20.16192        11.13575        -3.77723
   C      -21.29997        11.78590        -3.41276
   C      -22.20372        12.38460        -4.32251
   C      -21.97829        12.85116        -5.58658
   C      -20.77209        13.19176        -6.30666
   C      -19.59548        13.65169        -5.76905
   C      -18.49358        14.07513        -6.53651
   N      -17.56140        14.41774        -7.11353
   C      -19.37672        13.83007        -4.38938
   N      -19.14941        14.03370        -3.28242
   C      -21.10905        13.22627        -7.72693
   C      -22.51861        13.14739        -7.86033
   C      -23.12325        13.00000        -6.52132
   O      -24.30125        12.95912        -6.24060
   C      -23.14453        13.18669        -9.08244
   C      -22.34361        13.29510       -10.22409
   C      -20.93764        13.35747       -10.07962
   C      -20.30290        13.32840        -8.84312
   S      -20.15123        13.47201       -11.62299
   C      -21.68051        13.44158       -12.43161
   C      -22.73442        13.34824       -11.59239
   H       -0.82407         0.57762        14.72983
   H       -4.25552        -0.08658        18.31841
   H        0.74199        -1.82572        18.87806
   H        0.89928        -0.75570        16.50074
   H       -6.82566         2.33582        14.14865
   H       -3.75751         2.61167        11.97674
   H       -4.25106         3.57619         9.68178
   H       -8.72554         4.35458        11.79433
   H       -8.42421         3.25406        13.14052
   H       -8.89988         2.61714        11.56578
   H       -8.19990         4.22436         9.42908
   H       -5.52460         4.52952         7.98874
   H       -6.68460         5.31140         6.11759
   H       -9.28262         4.78603         7.63728
   H      -11.25633         4.95372         6.48120
   H      -14.90656         5.44560         4.55490
   H      -14.32648         3.16373         4.03567
   H      -14.99163         3.29475         5.68589
   H      -12.14339         3.06738         5.07974
   H      -13.09529         1.91859         5.76461
   H      -13.40592         6.59478         6.43385
   H      -13.36133         4.92769         7.06555
   H      -15.80511         6.42395         6.51631
   H      -15.24624         5.92095         7.97201
   H      -15.05374         5.51007         2.29983
   H      -14.18469         5.12641        -0.03183
   H      -12.52135         6.79930        -1.00688
   H      -10.57549         6.86780         0.48943
   H       -8.85379         6.62123         2.43810
   H       -7.64143         6.13553         4.49990
   H      -15.16998         7.05006        -1.07272
   H      -15.36660         8.00144         1.82093
   H      -16.34152        10.26409         1.93602
   H      -18.08593        11.74319         0.91064
   H      -18.62353         7.91482        -2.16693
   H      -17.38327         6.93951        -1.37172
   H      -16.93357         8.05911        -2.66200
   H      -19.73517        11.54206        -1.15539
   H      -18.53854         9.81980        -3.37452
   H      -19.95605        11.03294        -4.83662
   H      -21.60923        11.76730        -2.37732
   H      -23.24480        12.42019        -4.01443
   H      -24.21968        13.13374        -9.15626
   H      -19.22799        13.37248        -8.78078
   H      -21.69385        13.49588       -13.50284
   H      -23.75952        13.31613       -11.91461
*
