# ORCA input file
# SCF done       -182.090888266802          0.000509087583
! CAM-B3LYP def2-SVP def2/J RIJCOSX Grid4 TightSCF
%maxcore 5000
%tddft
    Mode sTDDFT
    Ethresh 5.0
    maxcore 5000
end

%pal
  nprocs 6
  end
* xyz 0 1
   C       19.03855         5.49828         4.17524
   C       20.12278         6.30195         3.94104
   F       20.38087         7.32040         4.77923
   C       20.98129         6.10409         2.85455
   C       20.72905         5.06981         1.99235
   C       19.63010         4.21389         2.18845
   C       18.76946         4.42947         3.30237
   C       17.66645         3.56799         3.53140
   C       17.44719         2.52196         2.67878
   C       18.29561         2.33043         1.54681
   C       19.36031         3.14122         1.30094
   C       17.79320         1.17368         0.78180
   O       18.25226         0.67371        -0.21551
   C       16.55314         0.72812         1.50903
   C       16.43134         1.48192         2.65666
   C       15.50413         1.21932         3.77338
   C       15.15878        -0.17301         3.93012
   N       14.90259        -1.27023         4.11856
   C       15.98161         1.64159         5.07122
   N       16.31199         1.93661         6.12429
   C       15.77502        -0.29445         0.93412
   C       14.43619        -0.55388         1.07979
   C       13.76142        -1.60546         0.33821
   N       12.46385        -1.65588         0.49020
   C       12.14001        -0.66199         1.34083
   C       13.35676         0.09050         1.76746
   C       12.97803         1.09179         2.62612
   S       13.81374         2.21167         3.61476
   C       11.52789         1.01759         2.71523
   C       11.03629        -0.09322         1.95059
   N        9.66688        -0.16353         2.05338
   C        9.31047         0.82177         2.82077
   C       10.44033         1.63941         3.27612
   C       10.53025         2.83372         4.04871
   C        9.48943         3.39107         4.81162
   N        9.62979         4.54542         5.41122
   C       10.80676         5.19548         5.32763
   C       11.88215         4.58023         4.66295
   N       11.73066         3.44485         4.03095
   C       10.84188         6.47598         5.95221
   C       11.78782         7.59579         5.89886
   N       11.39229         8.63361         6.57245
   C       10.18334         8.29047         7.13061
   C        9.83743         6.94828         6.76016
   C        8.56655         6.56864         7.35773
   S        8.04362         4.94417         7.22569
   C        8.11142         7.68134         8.01970
   C        9.12570         8.76823         7.88437
   N        8.71897         9.88612         8.51731
   C        7.55099         9.61318         9.03815
   C        7.05702         8.26944         8.79231
   C        5.79912         7.86874         9.16441
   C        5.14786         6.64462         8.92148
   C        3.64371         6.63272         8.87103
   O        2.91521         7.56086         9.12196
   C        3.28197         5.26563         8.45054
   C        2.05892         4.72761         8.19332
   C        1.97448         3.37616         7.77160
   C        3.17078         2.62077         7.60958
   C        3.08097         1.28439         7.18228
   C        1.84919         0.73687         6.93886
   C        0.66305         1.46135         7.09602
   C        0.73479         2.76621         7.50700
   F        1.76534        -0.54174         6.53336
   C        4.43099         3.20887         7.88734
   C        4.48248         4.50441         8.32069
   C        5.59766         5.36388         8.68275
   C        6.97574         4.87629         8.87653
   C        7.71662         5.59481         9.88475
   N        8.31818         6.10393        10.71174
   C        7.07820         3.48244         9.24663
   N        7.21811         2.39270         9.55975
   H       18.40303         5.67854         5.02816
   H       21.82125         6.76652         2.71948
   H       21.37796         4.89741         1.14699
   H       17.02832         3.76538         4.37851
   H       19.99712         2.97329         0.44544
   H       16.30158        -0.87543         0.18478
   H       14.26097        -2.31326        -0.30138
   H        8.27548         0.99379         3.05246
   H        8.54084         2.88711         4.92732
   H       12.86683         5.02454         4.65026
   H       12.71395         7.61199         5.35437
   H        7.02088        10.36064         9.60384
   H        5.15897         8.62669         9.60237
   H        1.16079         5.31588         8.30762
   H        3.97338         0.69132         7.05673
   H       -0.27957         0.97939         6.89149
   H       -0.16738         3.34500         7.63539
   H        5.31871         2.61260         7.74537
*
