# ORCA input file
# SCF done       -241.685242266055          0.000856331806
! CAM-B3LYP def2-SVP def2/J RIJCOSX Grid4 TightSCF
%maxcore 5000
%tddft
    Mode sTDDFT
    Ethresh 5.0
    maxcore 5000
end

%pal
  nprocs 6
  end
* xyz 0 1
   C       -2.88982        -5.55104       -10.44599
   C       -2.97986        -6.86933       -10.86867
   C       -3.61581        -7.82704       -10.09292
   C       -4.18483        -7.49158        -8.87335
   C       -4.09611        -6.17985        -8.43800
   C       -3.44501        -5.20401        -9.22485
   C       -3.48932        -3.92727        -8.52044
   C       -3.04322        -2.72902        -9.01340
   C       -2.47985        -2.56275       -10.29599
   N       -2.01422        -2.35204       -11.32429
   C       -3.10770        -1.48279        -8.35425
   N       -3.11604        -0.42558        -7.90547
   C       -4.07406        -4.18789        -7.21352
   C       -4.61438        -5.53438        -7.24076
   C       -5.61515        -6.04159        -6.44653
   C       -6.31495        -5.30739        -5.47111
   N       -6.94975        -4.77463        -4.67496
   C       -6.03458        -7.38260        -6.46462
   N       -6.37025        -8.47792        -6.36541
   C       -3.99446        -3.32408        -6.14901
   C       -4.11834        -3.62150        -4.77469
   C       -4.39663        -2.58767        -3.85473
   N       -4.53305        -1.29927        -4.15722
   S       -4.91297        -0.48798        -2.82578
   N       -4.94487        -1.72114        -1.80209
   C       -4.64401        -2.84766        -2.45590
   C       -4.66966        -4.16209        -1.94206
   C       -4.23941        -5.17550        -2.83135
   C       -3.90896        -4.90122        -4.19727
   N       -3.36738        -5.87316        -4.94604
   C       -3.27044        -7.09461        -4.49431
   C       -2.54158        -8.07620        -5.35945
   C       -1.07673        -8.18627        -4.92897
   C       -3.77561        -7.40817        -3.19828
   C       -3.87821        -8.81062        -2.68381
   C       -5.18053        -9.44664        -3.17850
   N       -4.17071        -6.45138        -2.40274
   C       -5.21833        -4.44919        -0.63530
   C       -5.95553        -5.59865        -0.42742
   C       -6.57961        -5.82462         0.81154
   C       -7.39587        -6.86361         1.25657
   C       -7.75932        -8.12375         0.55110
   C       -8.47325        -7.86270        -0.78973
   N       -9.36273        -8.97077        -1.08578
   C       -6.50176        -8.99476         0.36805
   N       -6.04716        -9.45253         1.66910
   C       -7.80251        -6.52722         2.59819
   C       -8.63029        -7.15556         3.45507
   C       -8.93948        -6.58706         4.79342
   C       -8.25950        -5.28851         5.09490
   C       -7.42807        -4.67719         4.22853
   C       -7.17920        -5.24627         2.95861
   C       -6.43679        -4.83257         1.86841
   C       -5.64784        -3.68384         1.63793
   C       -5.06597        -3.49908         0.42548
   C       -8.54528        -7.56803         5.86836
   C       -9.40379        -8.01661         6.79203
   C       -9.09423        -8.91727         7.86370
   C       -7.82528        -9.47855         8.10979
   N       -6.73583        -9.35240         7.34620
   S       -5.52570       -10.16810         8.00428
   N       -6.29810       -10.72796         9.29754
   C       -7.55879       -10.29031         9.27745
   C       -8.56068       -10.57294        10.22878
   C       -9.86063       -10.10336         9.90641
   C      -10.11598        -9.27786         8.77394
   N      -11.36482        -8.80189         8.57233
   C      -12.32005        -9.09734         9.41095
   C      -13.68193        -8.56645         9.08115
   C      -14.43428        -9.56115         8.19253
   C      -12.06923        -9.95700        10.52773
   C      -13.10951       -10.35598        11.52526
   C      -13.18060        -9.31217        12.64432
   N      -10.86903       -10.42345        10.73846
   C       -8.42543       -11.33889        11.41362
   C       -7.32741       -11.65707        12.16154
   C       -7.30525       -12.76650        13.11079
   C       -8.38074       -13.41579        13.65504
   C       -9.74102       -13.10046        13.44303
   N      -10.87190       -12.92138        13.34927
   C       -8.27377       -14.48822        14.56668
   N       -8.26269       -15.36107        15.31238
   C       -5.90289       -13.05286        13.38586
   C       -5.10641       -12.06384        12.76460
   C       -3.72579       -12.10768        12.85942
   C       -3.14332       -13.14333        13.57505
   C       -3.92317       -14.11151        14.19085
   C       -5.30723       -14.07703        14.10477
   C       -5.98661       -11.10322        12.11851
   C       -5.64989        -9.82632        11.75356
   C       -4.33120        -9.33185        11.73017
   N       -3.27730        -8.88254        11.65197
   C       -6.58800        -8.82845        11.42392
   N       -7.30939        -7.96774        11.18347
   H       -2.39118        -4.82188       -11.06277
   H       -2.54585        -7.15083       -11.81597
   H       -3.67090        -8.84754       -10.44054
   H       -4.67572        -8.24521        -8.27879
   H       -3.75766        -2.28771        -6.35121
   H       -2.58115        -7.71477        -6.38820
   H       -3.02159        -9.05400        -5.31300
   H       -0.99474        -8.52058        -3.89688
   H       -0.59022        -7.21749        -5.01468
   H       -0.55377        -8.89473        -5.56633
   H       -3.88021        -8.77610        -1.59334
   H       -3.02818        -9.40719        -3.01390
   H       -6.03584        -8.88405        -2.81146
   H       -5.25700       -10.46966        -2.81849
   H       -5.22874        -9.45471        -4.26542
   H       -6.10417        -6.28568        -1.24246
   H       -8.45616        -8.69081         1.17345
   H       -7.73011        -7.67605        -1.58122
   H       -9.08914        -6.96425        -0.69505
   H       -8.83329        -9.81970        -1.25341
   H       -9.90775        -8.77672        -1.91799
   H       -5.74504        -8.41149        -0.17991
   H       -6.75156        -9.88144        -0.22097
   H       -5.77398        -8.65990         2.24130
   H       -5.24448       -10.06426         1.57445
   H       -9.09833        -8.09896         3.21220
   H      -10.02803        -6.44287         4.85708
   H       -8.46085        -4.87059         6.06907
   H       -6.95786        -3.73908         4.48514
   H       -5.51678        -2.96032         2.42879
   H       -4.46808        -2.62321         0.23668
   H       -7.50877        -7.86786         5.87979
   H      -10.43924        -7.70147         6.77958
   H      -14.25094        -8.37633         9.99051
   H      -13.55947        -7.62865         8.53765
   H      -15.41770        -9.17005         7.94422
   H      -14.55841       -10.51780         8.69544
   H      -13.88209        -9.72799         7.27091
   H      -14.08538       -10.46275        11.05221
   H      -12.81024       -11.31086        11.95914
   H      -12.21629        -9.23777        13.14022
   H      -13.92621        -9.60756        13.37763
   H      -13.44427        -8.33093        12.25410
   H       -9.37443       -11.75293        11.73202
   H       -3.11044       -11.36373        12.37995
   H       -2.06787       -13.19512        13.65167
   H       -3.44862       -14.90734        14.74445
   H       -5.89624       -14.83986        14.58681
*
