# ORCA input file
# SCF done       -196.084350865152          0.001191411974
! CAM-B3LYP def2-SVP def2/J RIJCOSX Grid4 TightSCF
%maxcore 5000
%tddft
    Mode sTDDFT
    Ethresh 5.0
    maxcore 5000
end

%pal
  nprocs 6
  end
* xyz 0 1
   C       -1.85614        -8.29531        -7.82173
   C       -2.67535        -9.35974        -8.17702
   C       -3.98526        -9.43268        -7.73297
   C       -4.52076        -8.43617        -6.92754
   C       -3.71196        -7.37551        -6.56438
   C       -2.37218        -7.30492        -7.00573
   C       -1.76410        -6.09577        -6.45256
   C       -0.46326        -5.69007        -6.66059
   C        0.46026        -6.37496        -7.47251
   N        1.27032        -6.87417        -8.11655
   C        0.12745        -4.53700        -6.11360
   N        0.67180        -3.61306        -5.69631
   C       -2.75970        -5.46535        -5.62403
   C       -3.99636        -6.17155        -5.79441
   C       -5.26151        -5.68354        -5.52247
   C       -5.51779        -4.34058        -5.19335
   N       -5.77395        -3.24015        -4.97786
   C       -6.42917        -6.45402        -5.57715
   N       -7.41178        -7.05076        -5.51182
   C       -2.49679        -4.40024        -4.75318
   C       -3.11167        -4.09326        -3.56155
   S       -4.25644        -5.13398        -2.74191
   C       -4.47479        -4.01143        -1.42218
   C       -3.68203        -2.89537        -1.56994
   C       -2.85928        -2.92973        -2.76093
   C       -1.97154        -1.94600        -3.08312
   S       -1.71385        -0.52461        -2.15987
   C       -2.90803        -0.67360        -0.91245
   C       -3.70816        -1.73887        -0.73595
   C       -5.45320        -4.32190        -0.40853
   C       -6.62878        -4.93687        -0.78289
   C       -7.64513        -5.18888         0.15840
   C       -8.92798        -5.72213         0.05373
   C       -9.65550        -6.43525        -1.04242
   C       -8.96465        -6.51575        -2.41454
   N       -7.88473        -7.49066        -2.44648
   C      -10.02097        -7.86057        -0.56065
   N       -8.87190        -8.49085         0.06744
   C       -9.55448        -5.52735         1.34171
   C      -10.84345        -5.63084         1.72231
   C      -11.27139        -5.34474         3.12203
   C      -10.17637        -4.89553         4.03106
   C       -8.91236        -4.70271         3.60964
   C       -8.56209        -4.97023         2.26537
   C       -7.41252        -4.75166         1.53285
   C       -6.16837        -4.19567         1.90359
   C       -5.21201        -3.99190         0.96201
   C      -11.94033        -6.60681         3.60680
   C      -11.28087        -7.59306         4.24142
   C      -11.89733        -8.76452         4.73867
   S      -13.60678        -9.03644         4.56064
   C      -13.55800       -10.49742         5.53453
   C      -12.25014       -10.81106         5.89067
   C      -11.29911        -9.80721         5.47600
   C       -9.96213        -9.87628         5.81947
   S       -9.26134       -11.13744         6.72786
   C      -10.56098       -12.24045         6.92155
   C      -11.83367       -12.00808         6.52549
   C      -14.78019       -11.14494         5.79082
   C      -15.14743       -11.97032         6.82969
   C      -16.30167       -12.85994         6.77613
   C      -17.28820       -12.89631         5.82550
   C      -17.40245       -12.05025         4.70210
   N      -17.57759       -11.41343         3.76187
   C      -18.37672       -13.79501         5.84729
   N      -19.28864       -14.49031         5.79414
   C      -16.20958       -13.74686         7.92979
   C      -15.10071       -13.35800         8.71430
   C      -14.77553       -14.05339         9.86711
   C      -15.56203       -15.13569        10.23443
   C      -16.65644       -15.51240         9.47110
   C      -16.99184       -14.82363         8.31389
   C      -14.49967       -12.17772         8.11016
   C      -13.63216       -11.32243         8.75196
   C      -13.00499       -11.60657         9.98023
   N      -12.41836       -11.78932        10.95088
   C      -13.30760       -10.02336         8.32365
   N      -13.02656        -8.94023         8.06093
   H       -0.84194        -8.25366        -8.18338
   H       -2.28043       -10.14014        -8.80970
   H       -4.60190       -10.27206        -8.01711
   H       -5.54291        -8.50136        -6.59026
   H       -1.64538        -3.78447        -5.00305
   H       -1.34085        -1.99670        -3.95523
   H       -2.95453         0.19262        -0.27401
   H       -4.43576        -1.71248         0.06190
   H       -6.78089        -5.13377        -1.83183
   H      -10.59997        -5.89829        -1.20835
   H       -8.66390        -5.50273        -2.72721
   H       -9.71318        -6.85902        -3.13411
   H       -7.04973        -7.12813        -1.99744
   H       -7.65360        -7.69842        -3.41362
   H      -10.40551        -8.42060        -1.42826
   H      -10.81612        -7.81210         0.18924
   H       -8.11814        -8.50273        -0.61577
   H       -9.09576        -9.45522         0.29383
   H      -11.62570        -5.92590         1.03771
   H      -12.04133        -4.55914         3.09510
   H      -10.46084        -4.71999         5.05741
   H       -8.15386        -4.33995         4.28849
   H       -5.98980        -3.93651         2.93684
   H       -4.24261        -3.60456         1.23706
   H      -12.99593        -6.71054         3.39895
   H      -10.21977        -7.48468         4.41755
   H       -9.26617        -9.09950         5.55520
   H      -10.27359       -13.15696         7.40942
   H      -12.56457       -12.79010         6.67027
   H      -15.53702       -10.94973         5.04214
   H      -13.92714       -13.77301        10.46956
   H      -15.31627       -15.68841        11.12830
   H      -17.25821       -16.35444         9.77695
   H      -17.84523       -15.13272         7.73391
*
