# ORCA input file
# SCF done       -251.703480681611          0.000896911363
! CAM-B3LYP def2-SVP def2/J RIJCOSX Grid4 TightSCF
%maxcore 5000
%tddft
    Mode sTDDFT
    Ethresh 5.0
    maxcore 5000
end

%pal
  nprocs 6
  end
* xyz 0 1
   C       -4.99447        -2.65339        -2.82385
   C       -4.30052        -1.56862        -2.33654
   C       -3.14823        -1.66195        -1.53524
   N       -2.17312        -1.63890        -0.92647
   C       -4.58457        -0.21058        -2.56958
   N       -4.72712         0.92618        -2.67927
   C       -4.73347        -4.04165        -2.45462
   C       -5.62194        -4.87630        -3.17536
   C       -5.64109        -6.24054        -3.02945
   C       -4.73680        -6.81163        -2.12615
   C       -3.85513        -5.97080        -1.40860
   C       -3.83822        -4.58858        -1.55580
   S       -2.82891        -6.88201        -0.34195
   C       -3.58963        -8.36004        -0.86782
   C       -4.56064        -8.18311        -1.79448
  Br       -3.02926        -9.99758        -0.14345
   C       -6.47336        -4.03514        -4.04117
   O       -7.34970        -4.43014        -4.78960
   C       -6.05707        -2.65291        -3.79861
   C       -6.52250        -1.53246        -4.45200
   C       -7.45716        -1.39168        -5.47756
   C       -7.70887        -0.14810        -6.12158
   C       -8.85477        -0.22288        -6.92877
   C       -9.39255        -1.49498        -6.95272
   S       -8.58406        -2.64111        -5.98716
   C      -10.59260        -1.51476        -7.81181
   C      -10.29827        -0.33911        -8.75209
   C       -9.60711         0.72431        -7.85640
   C      -10.66072         1.54119        -7.08493
   C      -10.11333         2.42612        -5.97172
   C       -8.62953         1.60299        -8.65273
   C       -9.23592         2.31626        -9.85561
   C      -11.58934        -0.17901        -9.53713
   C      -11.87995        -1.59058       -10.06755
   S      -11.08771        -2.84165        -8.95405
   C       -6.85298         0.99411        -5.96096
   C       -5.51202         0.91838        -5.82237
   C       -4.62146         1.98610        -5.45542
   C       -3.34035         1.65472        -5.06318
   C       -2.47304         2.63712        -4.55310
   C       -1.17959         2.54736        -4.05597
   C       -0.36065         1.31199        -3.91893
   C        0.69415         1.25750        -5.04532
   N        1.41365        -0.00449        -5.02055
   C        0.29873         1.18154        -2.51504
   N        0.42124        -0.16368        -2.01108
   C       -0.79027         3.88753        -3.67502
   C        0.35209         4.37548        -3.15931
   C        0.48359         5.80797        -2.75763
   C       -0.67750         6.66660        -3.13894
   C       -1.80207         6.17102        -3.68642
   C       -1.91985         4.78643        -3.95496
   C       -2.93159         4.01798        -4.49166
   C       -4.23391         4.33771        -4.94043
   C       -5.04836         3.35277        -5.39286
   C        1.79908         6.39594        -3.20213
   C        2.98955         5.94317        -2.79661
   C        4.24677         6.52027        -3.17233
   C        5.52591         5.98506        -2.96525
   C        6.53310         6.90520        -3.38696
   C        5.99872         8.06632        -3.87429
   S        4.28844         8.12202        -3.84372
   C        7.05391         9.04031        -4.21150
   C        8.21808         8.08622        -4.49409
   C        8.06250         6.92983        -3.47055
   C        8.59851         7.30286        -2.07064
   C       10.08234         7.05969        -1.82097
   C        8.60350         5.60026        -4.03716
   C        9.88236         5.68747        -4.86654
   C        9.40791         9.01384        -4.66947
   C        8.92809        10.04192        -5.70506
   S        7.08009        10.14785        -5.65606
   C        5.67251         4.66086        -2.44365
   C        6.73790         4.14392        -1.78357
   C        6.77260         2.79754        -1.36125
   C        7.76026         2.16248        -0.66421
   C        8.94499         2.65336         0.00050
   C        9.11608         3.88532         0.58287
   C       10.31025         4.30774         1.19987
   N       11.26574         4.72283         1.68291
   C        8.09460         4.84511         0.72733
   N        7.29426         5.64616         0.92045
   C        9.86460         1.52698         0.13598
   C        9.18373         0.33758        -0.22773
   C        7.82083         0.67870        -0.68459
   O        6.95220        -0.07861        -1.05470
   C        9.77250        -0.90094        -0.15708
   C       11.09906        -0.96940         0.28256
   C       11.77428         0.22462         0.63002
   C       11.17645         1.47751         0.56717
   S       13.40686        -0.08869         1.13613
   C       13.16213        -1.79643         0.88146
   C       11.92328        -2.11740         0.43924
  Br       14.56640        -2.99267         1.22162
   H       -6.33217        -6.84953        -3.59079
   H       -3.15050        -3.99090        -0.98091
   H       -5.13114        -8.98468        -2.22691
   H       -6.08916        -0.59317        -4.13063
   H      -11.47872        -1.33108        -7.19055
   H       -9.53021        -0.68961        -9.45359
   H      -11.20743         2.15995        -7.79852
   H      -11.37425         0.84530        -6.63884
   H       -9.58037         1.83197        -5.23368
   H      -10.93765         2.92791        -5.46942
   H       -9.44891         3.19254        -6.36239
   H       -8.20160         2.34957        -7.98531
   H       -7.80645         0.97099        -8.99616
   H      -10.09636         2.91516        -9.56920
   H       -9.54265         1.60724       -10.61923
   H       -8.49458         2.98017       -10.29482
   H      -11.50728         0.51905       -10.36827
   H      -12.39714         0.15360        -8.88374
   H      -11.44350        -1.74541       -11.05322
   H      -12.94493        -1.80942       -10.11415
   H       -7.34073         1.95602        -5.94953
   H       -5.03589        -0.04688        -5.94936
   H       -3.00855         0.62729        -5.12356
   H       -1.01731         0.44524        -4.05160
   H        1.35143         2.13973        -4.95972
   H        0.17115         1.32768        -6.00369
   H        2.08578        -0.01534        -4.26061
   H        1.92584        -0.14006        -5.88436
   H       -0.28046         1.75890        -1.79051
   H        1.30854         1.60585        -2.55354
   H       -0.46696        -0.52972        -1.68429
   H        0.77813        -0.78903        -2.72416
   H        1.21313         3.75042        -2.97893
   H        0.51561         5.78397        -1.65229
   H       -0.57344         7.72066        -2.93024
   H       -2.62700         6.82314        -3.93388
   H       -4.57030         5.36378        -4.90678
   H       -6.04498         3.59651        -5.72666
   H        1.74127         7.23020        -3.88681
   H        3.03600         5.10343        -2.11611
   H        7.24021         9.68968        -3.34684
   H        8.00288         7.64347        -5.47501
   H        8.38588         8.35986        -1.89876
   H        8.02606         6.75747        -1.31788
   H       10.70059         7.63673        -2.50297
   H       10.33929         6.00825        -1.92305
   H       10.32600         7.36197        -0.80431
   H        8.78193         4.90298        -3.22050
   H        7.82324         5.16237        -4.66586
   H       10.69005         6.15110        -4.30996
   H        9.72654         6.24425        -5.78606
   H       10.19442         4.68113        -5.13964
   H       10.29861         8.50816        -5.03750
   H        9.64884         9.51064        -3.72871
   H        9.18564         9.74013        -6.71930
   H        9.32507        11.03834        -5.52111
   H        4.81055         4.01675        -2.56477
   H        7.59249         4.76364        -1.57962
   H        5.97325         2.14927        -1.70631
   H        9.22702        -1.79045        -0.43054
   H       11.73230         2.35953         0.83927
   H       11.60172        -3.12152         0.23111
*
