# ORCA input file
# SCF done       -194.529801817013          0.000440496234
! CAM-B3LYP def2-SVP def2/J RIJCOSX Grid4 TightSCF
%maxcore 5000
%tddft
    Mode sTDDFT
    Ethresh 5.0
    maxcore 5000
end

%pal
  nprocs 6
  end
* xyz 0 1
   C       -0.85637        -2.89460        -0.17983
   C       -0.06515        -3.76365         0.51758
   C        0.37577        -4.99948        -0.00431
   N        0.76385        -6.00879        -0.38631
   C        0.57789        -3.44725         1.73907
   N        1.31876        -3.20068         2.58341
   C       -1.14031        -2.97525        -1.61200
   C       -1.48837        -1.67135        -2.07873
   C       -1.64183        -1.40066        -3.41024
   C       -1.49017        -2.44585        -4.34611
   C       -1.25055        -3.77154        -3.87712
   C       -1.06809        -4.01795        -2.49521
   C       -1.16093        -4.81507        -4.81937
   C       -1.26597        -4.56030        -6.16025
   C       -1.46109        -3.25079        -6.62346
   C       -1.57903        -2.21663        -5.73443
   C       -1.65287        -0.77497        -0.93379
   O       -2.04741         0.36997        -0.91766
   C       -1.33029        -1.60299         0.27496
   C       -1.65350        -1.10954         1.49887
   C       -1.71637        -1.79557         2.73710
   N       -1.42015        -3.08148         2.86450
   C       -1.63989        -3.38656         4.16143
   C       -2.14950        -2.22164         4.90000
   C       -2.40975        -2.57761         6.30578
   O       -2.85682        -1.88759         7.19069
   C       -2.00262        -3.99901         6.35616
   C       -1.55446        -4.45056         5.01865
   N       -1.23620        -5.76975         5.04009
   C       -1.43783        -6.14790         6.27798
   C       -1.91972        -5.09174         7.15222
   C       -2.21442        -1.19655         3.99976
   C       -2.76065         0.12144         4.11030
   C       -3.66895         0.44802         5.03798
   C       -4.44881         1.69703         4.94493
   S       -5.27389         2.26602         6.51126
   C       -6.56742         1.80682         5.44452
   C       -5.83202         1.43884         4.37526
   C       -6.16157         0.83004         3.09937
   O       -7.25972         0.48763         2.73766
   O       -5.04524         0.70235         2.33939
   C       -5.15419        -0.08147         1.16871
   C       -4.83626        -1.50493         1.46236
   N       -4.83745        -1.94458         2.69413
   C       -4.43132        -3.24362         2.64002
   C       -4.08871        -3.61184         1.26510
   C       -3.56204        -4.98684         1.20030
   O       -3.07266        -5.55157         0.25078
   C       -3.76146        -5.45733         2.58464
   C       -4.27483        -4.34881         3.43109
   N       -4.50314        -4.78918         4.69733
   C       -4.19595        -6.06051         4.67914
   C       -3.72740        -6.54380         3.39119
   C       -4.41919        -2.53528         0.47889
   C       -4.38496        -2.52472        -0.94035
   C       -4.80649        -1.53837        -1.76868
   C       -4.71437        -1.69238        -3.17445
   C       -5.00113        -0.71120        -4.07387
   C       -4.86875        -0.79462        -5.51774
   C       -4.63550        -1.92987        -6.24865
   C       -4.47642        -1.94736        -7.65038
   N       -4.31656        -2.02566        -8.78434
   C       -4.52919        -3.23651        -5.72596
   N       -4.44610        -4.33130        -5.38966
   C       -5.05659         0.54603        -6.05707
   C       -5.38148         1.42870        -4.98601
   C       -5.39807         0.68228        -3.71841
   O       -5.67579         1.11440        -2.62093
   C       -5.62412         2.75626        -5.19321
   C       -5.54711         3.27440        -6.50494
   C       -5.21793         2.39988        -7.58148
   C       -4.97490         1.02907        -7.33709
   C       -5.14245         2.92825        -8.88640
   C       -5.38107         4.25551        -9.11869
   C       -5.70531         5.11516        -8.05827
   C       -5.78663         4.63513        -6.77912
   H       -1.86357        -0.39664        -3.74253
   H       -0.87587        -5.02658        -2.16597
   H       -0.99986        -5.82029        -4.46095
   H       -1.19543        -5.36673        -6.87358
   H       -1.53095        -3.06615        -7.68502
   H       -1.73031        -1.20386        -6.08257
   H       -1.98961        -0.07874         1.50034
   H       -1.25140        -7.16747         6.56908
   H       -2.15141        -5.20232         8.19276
   H       -2.50188         0.83611         3.34143
   H       -3.96131        -0.25870         5.80102
   H       -3.91039         2.51464         4.46661
   H       -7.62039         1.84447         5.64414
   H       -4.45180         0.33656         0.44020
   H       -6.18040        -0.00796         0.77364
   H       -4.30039        -6.65451         5.57069
   H       -3.42422        -7.54864         3.17691
   H       -4.00212        -3.44163        -1.37698
   H       -5.20732        -0.61198        -1.39266
   H       -4.36219        -2.65198        -3.53160
   H       -5.87076         3.40295        -4.36436
   H       -4.72763         0.39380        -8.17285
   H       -4.89359         2.26265        -9.69984
   H       -5.32139         4.65058       -10.12158
   H       -5.89031         6.15946        -8.26000
   H       -6.03591         5.29198        -5.95879
*
