# ORCA input file
# SCF done       -225.408278651232          0.000677110362
! CAM-B3LYP def2-SVP def2/J RIJCOSX Grid4 TightSCF
%maxcore 5000
%tddft
    Mode sTDDFT
    Ethresh 5.0
    maxcore 5000
end

%pal
  nprocs 6
  end
* xyz 0 1
   C       -0.07619         0.33947        -2.83732
   C        0.72648         0.18974        -3.93114
   C        1.12037        -1.06155        -4.45602
   N        1.47312        -2.04795        -4.92300
   C        1.24470         1.25512        -4.70100
   N        1.68305         2.07109        -5.37767
   C       -0.68657        -0.72671        -2.05766
   C       -1.55324        -0.15175        -1.08031
   C       -2.27488        -0.92293        -0.21147
   C       -2.15922        -2.32770        -0.27845
   C       -1.29177        -2.91078        -1.24911
   C       -0.55940        -2.08951        -2.13564
   C       -1.18396        -4.31530        -1.30593
   C       -1.89782        -5.10700        -0.44769
   C       -2.75092        -4.53226         0.50694
   C       -2.87921        -3.17235         0.59002
   C       -1.52654         1.30635        -1.19527
   O       -2.17057         2.11534        -0.56048
   C       -0.52764         1.60702        -2.27022
   C       -0.08921         2.84504        -2.55463
   C       -0.59643         4.03920        -1.89198
   C        0.26120         4.88126        -1.17883
   C        1.70195         4.60464        -1.01684
   O        2.29822         3.64378        -1.40456
   S        2.44657         5.94877        -0.10153
   C        0.88851         6.84236         0.07855
   O        0.81498         7.92815         0.55832
   C       -0.18877         6.02379        -0.51988
   C       -1.54313         6.34990        -0.47932
   C       -2.41113         5.50452        -1.18067
   C       -1.94823         4.40685        -1.89673
   C       -3.00414         3.66997        -2.63312
   O       -2.86971         2.78973        -3.42756
   S       -4.59524         4.35325        -2.18586
   C       -3.88469         5.63949        -1.15285
   O       -4.53980         6.42439        -0.54142
   C       -2.03875         7.47957         0.30452
   O       -2.69217         8.49213        -0.31774
   C       -3.04461         9.32954         0.68510
   C       -2.56830         8.76086         1.90127
   N       -1.93155         7.58579         1.58299
   C       -2.76939         9.36396         3.12957
   C       -3.46802        10.56008         3.07478
   C       -3.93445        11.11117         1.84283
   C       -3.73740        10.52166         0.60947
   O       -4.57922        12.25964         2.13571
   C       -4.48844        12.37520         3.49342
   N       -3.85114        11.40725         4.07563
   C       -5.08812        13.51085         4.12875
   C       -5.07800        13.65535         5.46194
   C       -5.68513        14.75611         6.17963
   C       -6.46527        14.51825         7.32813
   C       -6.71421        13.17638         7.89577
   O       -6.35752        12.11611         7.48546
   S       -7.70907        13.34969         9.39276
   C       -7.84894        15.12114         9.22393
   O       -8.46560        15.82083         9.97171
   C       -7.08960        15.54209         8.03067
   C       -6.97423        16.88129         7.65497
   C       -6.17471        17.12476         6.53705
   C       -5.53810        16.11133         5.82519
   C       -4.62521        16.62577         4.77782
   O       -3.88658        16.02784         4.05959
   S       -4.72688        18.42983         4.74001
   C       -5.89839        18.49988         6.08159
   O       -6.36115        19.50974         6.52381
   C       -7.65219        17.95725         8.37869
   C       -7.09082        18.55277         9.44067
   C       -7.59796        19.61336        10.30328
   C       -8.80462        20.23949        10.18500
   C       -9.25646        21.26176        11.04857
   N       -9.67418        22.09470        11.71759
   C       -9.75765        19.94443         9.18530
   N      -10.56850        19.74608         8.39851
   C       -6.57869        19.86657        11.31139
   C       -5.46696        18.99852        11.08754
   C       -5.73575        18.15391         9.92209
   O       -5.03456        17.30084         9.41920
   C       -4.36192        19.02106        11.89187
   C       -4.31519        19.92483        12.97538
   C       -5.42148        20.79432        13.20664
   C       -6.55085        20.75101        12.35886
   C       -5.36413        21.69154        14.29288
   C       -4.26850        21.72955        15.11179
   C       -3.18014        20.87379        14.88292
   C       -3.20267        19.99074        13.83762
   H       -2.92593        -0.46293         0.51705
   H        0.08958        -2.56062        -2.85670
   H       -0.52721        -4.75361        -2.04265
   H       -1.80935        -6.18156        -0.49980
   H       -3.30578        -5.17266         1.17581
   H       -3.53433        -2.72418         1.32233
   H        0.72117         3.00239        -3.25414
   H       -2.41473         8.94018         4.05164
   H       -4.09536        10.94226        -0.31381
   H       -5.56501        14.21623         3.46465
   H       -4.64933        12.85885         6.05500
   H       -8.62941        18.23682         8.00869
   H       -3.53336        18.35479        11.70225
   H       -7.37155        21.42139        12.55955
   H       -6.20396        22.34827        14.46518
   H       -4.23413        22.41969        15.94121
   H       -2.32407        20.91786        15.53919
   H       -2.36798        19.32962        13.65665
*
