# ORCA input file
# SCF done       -204.916280691459          0.000527318704
! CAM-B3LYP def2-SVP def2/J RIJCOSX Grid4 TightSCF
%maxcore 5000
%tddft
    Mode sTDDFT
    Ethresh 5.0
    maxcore 5000
end

%pal
  nprocs 6
  end
* xyz 0 1
   C        5.22322         2.06850         2.32569
   C        4.59392         1.15014         1.52725
   C        4.97472        -0.20557         1.43280
   N        5.23519        -1.31692         1.31318
   C        3.47128         1.41417         0.71450
   N        2.55484         1.55686         0.03672
   C        6.35029         1.80086         3.20818
   C        6.62939         2.97809         3.95990
   C        7.64392         3.02859         4.87219
   C        8.44259         1.88187         5.07787
   C        8.17335         0.70115         4.32633
   C        7.11570         0.67856         3.38912
   C        8.98052        -0.43567         4.53584
   C       10.00387        -0.40951         5.44378
   C       10.26750         0.75319         6.18346
   C        9.50310         1.87430         6.00504
   C        5.68261         4.04208         3.58667
   O        5.62630         5.15789         4.05517
   C        4.85409         3.46700         2.49016
   C        4.05165         4.17248         1.65015
   C        3.63127         5.52840         1.78043
   C        3.30524         6.21031         2.91864
   C        2.74562         7.49101         2.54385
   C        2.32688         8.47346         3.45205
   N        1.96825         9.27857         4.18697
   C        2.68650         7.57546         1.17770
   C        3.25629         6.37592         0.62982
   C        3.54371         6.12954        -0.68830
   C        3.00212         6.84430        -1.87464
   C        3.72649         6.43174        -2.95943
   C        4.69931         5.46225        -2.52372
   C        4.56053         5.24930        -1.17377
   C        5.64008         4.85138        -3.36524
   N        6.41068         4.35953        -4.05890
   C        1.85958         7.68913        -1.86721
   C        1.55160         8.54001        -2.88063
   C        0.42697         9.39764        -2.92124
   S        0.30465        10.52346        -4.26562
   C       -1.16280        11.15694        -3.63241
   C       -1.53153        10.50859        -2.44172
   C       -0.63665         9.52315        -2.04044
   S       -3.01857        11.13132        -1.77363
   C       -3.13287        12.26758        -3.08801
   C       -4.04096        13.27128        -3.41843
   C       -3.69582        13.92013        -4.58780
   S       -2.19613        13.29373        -5.27397
   C       -2.06491        12.15485        -3.99441
   C       -4.31567        15.05984        -5.17091
   C       -5.02638        16.03070        -4.52442
   C       -5.20257        17.13853        -5.43078
   C       -5.92654        18.29809        -5.11902
   N       -6.52604        19.23872        -4.84987
   C       -4.55943        16.87272        -6.61877
   C       -4.06163        15.53911        -6.55229
   C       -3.65238        14.74906        -7.60054
   C       -3.02359        15.16632        -8.86927
   C       -2.91467        14.04418        -9.65464
   C       -3.47756        12.92557        -8.94584
   C       -3.87250        13.33616        -7.69528
   C       -3.59402        11.62639        -9.45956
   N       -3.68524        10.55999        -9.87362
   C       -2.45464        16.44472        -9.10026
   C       -1.77589        16.79328       -10.22899
   C       -1.16777        18.05858       -10.36595
   C       -0.38764        18.43608       -11.42447
   C        0.28825        19.70786       -11.59671
   C        0.18185        20.81380       -10.79139
   C        0.86156        22.02826       -11.02198
   N        1.38505        23.04218       -11.14865
   C       -0.61675        20.91324        -9.63357
   N       -1.24166        21.07254        -8.68286
   C        1.10329        19.61866       -12.80368
   C        0.90528        18.33771       -13.39381
   C       -0.03973        17.56069       -12.57546
   O       -0.43523        16.43511       -12.80016
   C        1.54647        17.96203       -14.53882
   C        2.43773        18.86649       -15.15779
   C        2.64447        20.14919       -14.57290
   C        1.96282        20.51115       -13.38821
   C        3.54004        21.04242       -15.19535
   C        4.20066        20.68723       -16.33989
   C        3.99606        19.42405       -16.91489
   C        3.13288        18.53314       -16.33670
   H        7.83446         3.93380         5.42949
   H        6.94186        -0.22748         2.83064
   H        8.77312        -1.32861         3.96469
   H       10.61646        -1.28518         5.59708
   H       11.07956         0.75625         6.89496
   H        9.70135         2.77245         6.57142
   H        3.68531         3.67237         0.76193
   H        3.39237         5.86636         3.93036
   H        2.39381         8.44215         0.61660
   H        3.58797         6.71744        -3.98457
   H        5.19842         4.63202        -0.57148
   H        1.20734         7.63126        -1.00874
   H        2.22437         8.61728        -3.72355
   H       -0.75687         8.92478        -1.15697
   H       -4.92196        13.50593        -2.85088
   H       -5.35507        16.02698        -3.50291
   H       -4.58122        17.49444        -7.49283
   H       -2.47170        13.97406       -10.62973
   H       -4.39446        12.73844        -6.97231
   H       -2.52857        17.17013        -8.30026
   H       -1.66911        16.09315       -11.04253
   H       -1.31595        18.75679        -9.55177
   H        1.37786        16.98413       -14.96502
   H        2.14454        21.48856       -12.97063
   H        3.69423        22.01393       -14.74913
   H        4.88521        21.37815       -16.80865
   H        4.52595        19.16029       -17.81793
   H        2.97135        17.55894       -16.77456
*
