# ORCA input file
# SCF done       -190.602519235681          0.000372988707
! CAM-B3LYP def2-SVP def2/J RIJCOSX Grid4 TightSCF
%maxcore 5000
%tddft
    Mode sTDDFT
    Ethresh 5.0
    maxcore 5000
end

%pal
  nprocs 6
  end
* xyz 0 1
   C       -1.46859         0.46453        -4.17803
   N       -1.11367         1.22203        -3.20334
   C       -0.27182         0.57146        -2.37485
   C        0.01725        -0.72351        -2.73521
   S       -0.78619        -1.14610        -4.18809
   C        1.03214        -1.28561        -1.82310
   C        0.76546        -0.42023        -0.58722
   C        0.45765         1.00370        -1.12183
   C        1.74420         1.76741        -1.48956
   C        1.50975         3.02140        -2.32452
   C       -0.40818         1.84958        -0.17888
   C       -1.75000         1.23334         0.20057
   N        1.83009        -0.72998         0.35654
   C        2.14580        -2.15072         0.21829
   S        1.07067        -2.94008        -1.05613
   C        1.52276        -0.32286         1.67801
   C        0.48142        -0.71365         2.44923
   C        0.51618         0.05336         3.68621
   C       -0.43894        -0.04299         4.70328
   N       -1.21086        -0.14148         5.54839
   C        1.60918         0.87077         3.66890
   C        2.33806         0.62680         2.44891
   C        3.57407         1.11007         2.09655
   C        4.43678         2.04390         2.86748
   C        5.31623         2.59952         1.97335
   C        5.15382         1.95057         0.70114
   C        4.14475         1.02036         0.79000
   C        5.91693         2.23062        -0.44044
   N        6.53845         2.46512        -1.37674
   C        4.48080         2.27268         4.26540
   C        4.12353         1.37937         5.22923
   C        4.20445         1.62675         6.61779
   N        3.93610         0.63355         7.53710
   C        4.08739         1.14319         8.78687
   C        4.03313         0.84262        10.13747
   C        4.36192         2.03098        10.81706
   N        4.60967         3.02872         9.89616
   C        4.45589         2.51337         8.64908
   C        4.52985         2.81441         7.30007
   C        4.46869         2.19763        12.21385
   C        4.68946         3.38006        12.85675
   C        4.84228         3.54959        14.25272
   C        4.54889         4.70588        14.93462
   C        4.61394         4.43525        16.33822
   C        4.37437         5.38011        17.34452
   N        4.17020         6.15862        18.16345
   C        4.94652         3.10870        16.53628
   C        5.17401         2.51413        15.26541
   C        5.80097         1.30759        15.03300
   C        5.91943         0.17121        15.97080
   C        6.76375        -0.74327        15.39912
   C        7.20684        -0.23126        14.12854
   C        6.60555         0.98348        13.89616
   C        8.10352        -0.88158        13.27274
   N        8.83093        -1.41846        12.56424
   C        5.17288         0.03509        17.17423
   C        5.43280        -0.86429        18.15399
   C        4.67553        -0.90602        19.35069
   N        3.68677        -0.11410        19.65403
   C        3.18719        -0.38712        20.86130
   C        3.79797        -1.42647        21.53961
   S        5.07638        -2.08989        20.62382
   C        3.24583        -1.52058        22.90179
   C        1.85939        -0.90984        22.66252
   C        2.08797         0.26609        21.67363
   C        2.66047         1.52850        22.34124
   C        1.67736         2.26072        23.24587
   C        0.82939         0.54044        20.83979
   C        1.02411         1.60602        19.76783
   N        1.25357        -0.76475        23.97179
   C        1.74288        -1.82656        24.83228
   S        2.80321        -3.00117        23.86600
   H       -2.14158         0.76884        -4.95373
   H        2.03767        -1.14136        -2.23577
   H       -0.19247        -0.78680        -0.17895
   H        2.40087         1.09831        -2.04932
   H        2.25377         2.03940        -0.56374
   H        0.87739         2.80216        -3.18091
   H        2.46341         3.40085        -2.68417
   H        1.03548         3.80416        -1.73927
   H       -0.60654         2.79394        -0.68525
   H        0.16866         2.06085         0.72563
   H       -2.28895         0.91838        -0.68973
   H       -2.35431         1.97285         0.72053
   H       -1.63384         0.37995         0.86438
   H        2.02238        -2.70267         1.15176
   H        3.17837        -2.25988        -0.12910
   H       -0.27521        -1.44146         2.21742
   H        1.85809         1.60543         4.40891
   H        6.07115         3.33240         2.18910
   H        3.78641         0.38198         0.00928
   H        4.94915         3.19963         4.56933
   H        3.78086         0.39502         4.93660
   H        3.67255        -0.30759         7.29999
   H        3.79470        -0.09005        10.60728
   H        4.88364         3.96795        10.12467
   H        4.77570         3.75161         6.84432
   H        4.34715         1.29545        12.79581
   H        4.66352         4.30355        12.28962
   H        4.25792         5.64785        14.50829
   H        5.14463         2.65924        17.48962
   H        7.04482        -1.70228        15.79069
   H        6.80158         1.63004        13.06313
   H        4.33333         0.69784        17.32281
   H        6.25588        -1.55874        18.07814
   H        3.84808        -0.91489        23.59006
   H        1.30254        -1.66684        22.07541
   H        3.01022         2.19781        21.55359
   H        3.53337         1.24071        22.93118
   H        0.83692         2.65255        22.68026
   H        2.18087         3.09784        23.72395
   H        1.30514         1.59085        24.01556
   H        0.01867         0.82836        21.51178
   H        0.53824        -0.39415        20.35199
   H        1.17043         2.58874        20.20677
   H        0.14520         1.64823        19.12834
   H        1.88887         1.36230        19.15716
   H        0.24263        -0.79237        23.89486
   H        0.94785        -2.40186        25.30531
   H        2.39147        -1.40248        25.60482
*
