# ORCA input file
# SCF done       -242.471339956225          0.000467305384
! CAM-B3LYP def2-SVP def2/J RIJCOSX Grid4 TightSCF
%maxcore 5000
%tddft
    Mode sTDDFT
    Ethresh 5.0
    maxcore 5000
end

%pal
  nprocs 6
  end
* xyz 0 1
   C       -4.07411       -14.03683         6.33970
   S       -3.62048       -13.58969         4.76125
   C       -3.40152       -11.93825         5.23180
   C       -3.67451       -11.77148         6.57709
   C       -4.06196       -12.98143         7.20831
   C       -4.42560       -13.15380         8.65398
   F       -4.78418       -14.42327         8.90904
   F       -3.40780       -12.88174         9.48099
   F       -5.46097       -12.39174         9.02527
   C       -3.53786       -10.43052         7.23165
   F       -2.29863        -9.92299         7.05809
   F       -4.37763        -9.52288         6.70100
   F       -3.76003       -10.43536         8.54192
   C       -2.99229       -10.93439         4.29458
   C       -2.63236       -11.20917         3.03430
   C       -2.17012       -10.20545         2.09088
   C       -0.95520       -10.37471         1.41397
   C       -0.09228       -11.55394         1.58171
   O       -0.25779       -12.49300         2.30575
   S        1.32285       -11.39581         0.49063
   C        0.79026        -9.79915        -0.14801
   O        1.38386        -9.21328        -1.00574
   C       -0.45716        -9.41489         0.52793
   C       -1.13298        -8.21365         0.28344
   C       -2.36527        -8.05767         0.92814
   C       -2.88030        -9.03160         1.79330
   C       -4.24622        -8.75575         2.26937
   O       -4.97854        -9.45903         2.89874
   S       -4.74858        -7.13172         1.67385
   C       -3.22032        -6.86536         0.77942
   O       -2.99376        -5.85511         0.17614
   C       -0.57065        -7.18717        -0.60437
   C       -1.22883        -6.83869        -1.75655
   C       -0.67868        -5.86051        -2.60658
   C       -1.13951        -5.28974        -3.79440
   C       -2.42588        -5.46780        -4.51715
   C       -2.34113        -6.71205        -5.43477
   N       -1.50322        -6.41791        -6.57963
   C       -3.65950        -5.55811        -3.59633
   N       -3.68149        -4.44170        -2.67619
   C       -0.07946        -4.43552        -4.27637
   C        0.05826        -3.78493        -5.44842
   C        1.32923        -3.08234        -5.77735
   C        2.27716        -2.92815        -4.63579
   C        2.12592        -3.60404        -3.47627
   C        0.99349        -4.42377        -3.28423
   C        0.61378        -5.29468        -2.26391
   C        1.25697        -5.66766        -1.07189
   C        0.66848        -6.58872        -0.25509
   C        1.02059        -1.80951        -6.51730
   C        0.99077        -0.61547        -5.94073
   C        0.69853         0.60865        -6.67678
   C       -0.44094         0.77835        -7.47830
   C       -1.54089        -0.19233        -7.60950
   O       -1.68146        -1.25578        -7.07683
   S       -2.76743         0.46479        -8.75296
   C       -1.85966         1.97934        -9.03699
   O       -2.22709         2.84991        -9.77187
   C       -0.63849         1.94906        -8.22102
   C        0.27685         3.00165        -8.20685
   C        1.37975         2.85816        -7.36646
   C        1.58685         1.69117        -6.62594
   C        2.84044         1.68835        -5.85725
   O        3.29162         0.80856        -5.18138
   S        3.67042         3.26624        -6.09011
   C        2.41263         3.89194        -7.20216
   O        2.43791         4.98347        -7.69170
   C        0.12186         4.18026        -9.06024
   S       -0.81511         5.53191        -8.56402
   C       -0.47064         6.39161       -10.02497
   C        0.36672         5.66113       -10.83613
   C        0.68504         4.38531       -10.29189
   C        1.52562         3.34632       -10.97002
   F        1.29552         2.11004       -10.47313
   F        1.28531         3.25418       -12.27930
   F        2.84164         3.54783       -10.81237
   C        0.96083         6.19165       -12.10673
   F        1.16237         7.51846       -12.05794
   F        2.15304         5.65754       -12.38388
   F        0.18049         5.97092       -13.18075
   C       -1.09694         7.68319       -10.21784
   C       -1.53455         8.15409       -11.37943
   H       -4.33073       -15.05260         6.56775
   H       -2.96373        -9.91756         4.65847
   H       -2.59454       -12.23602         2.69456
   H       -2.14688        -7.34091        -2.01802
   H       -2.56844        -4.59083        -5.15512
   H       -3.36664        -7.00546        -5.71097
   H       -1.88832        -7.53835        -4.88130
   H       -1.99406        -5.81927        -7.23477
   H       -1.23353        -7.26472        -7.06444
   H       -3.68563        -6.54320        -3.10300
   H       -4.55164        -5.48877        -4.22629
   H       -2.96755        -4.54482        -1.96277
   H       -4.57638        -4.38032        -2.20567
   H       -0.71430        -3.77556        -6.20094
   H        1.83629        -3.74576        -6.50215
   H        3.12697        -2.28509        -4.80487
   H        2.85941        -3.51888        -2.68861
   H        2.20873        -5.23029        -0.81247
   H        1.14010        -6.88215         0.67064
   H        0.78925        -1.91825        -7.56722
   H        1.26600        -0.49612        -4.90221
   H       -1.25467         8.24406        -9.30627
   H       -1.44891         7.60427       -12.30015
   H       -2.00885         9.11750       -11.43952
*
