# ORCA input file
# SCF done       -197.246885086499          0.000329256424
! CAM-B3LYP def2-SVP def2/J RIJCOSX Grid4 TightSCF
%maxcore 5000
%tddft
    Mode sTDDFT
    Ethresh 5.0
    maxcore 5000
end

%pal
  nprocs 6
  end
* xyz 0 1
   C       -1.19230        10.27371        -2.65936
   S        0.20767        10.47518        -1.69619
   C       -0.06657         8.93652        -0.91769
   C       -1.20639         8.32950        -1.42189
   C       -1.84681         9.09980        -2.41811
   C       -3.12033         8.67704        -3.07852
   C       -3.32839         7.17197        -2.93469
   C       -3.14970         6.74936        -1.47957
   C       -1.70475         6.97223        -1.02792
   C       -0.77295         5.92245        -1.61249
   O       -1.11967         4.94914        -2.21269
   C        0.79034         8.46393         0.11114
   C        1.93523         9.07969         0.49235
   C        2.82489         8.64301         1.51031
   N        4.09560         9.02283         1.45661
   C        4.71583         8.39489         2.47099
   C        3.77848         7.56665         3.24242
   C        4.47789         6.90627         4.35352
   O        4.03255         6.14154         5.18787
   C        5.85951         7.39364         4.20526
   C        5.96409         8.29422         3.04390
   N        7.22765         8.76362         2.91324
   C        7.89689         8.22454         3.90606
   C        7.10283         7.36653         4.75589
   C        2.54408         7.74905         2.66278
   C        1.26029         7.30541         3.09099
   C        1.10122         6.36954         4.05566
   C       -0.13488         5.88006         4.59538
   C       -0.06957         5.01338         5.67049
   C       -1.24021         4.52194         6.26974
   C       -1.44337         3.68180         7.36223
   C       -0.44030         3.01401         8.22690
   C        0.22354         1.83491         7.44660
   N        1.06407         0.98710         8.24511
   C        0.63432         3.97170         8.77388
   N        1.28682         3.37295         9.93033
   C       -2.87217         3.50870         7.49151
   C       -3.60206         2.80600         8.37704
   C       -5.09323         2.77379         8.30700
   C       -5.68361         3.59645         7.20932
   C       -4.93888         4.30918         6.34376
   C       -3.52711         4.29786         6.43928
   C       -2.52862         4.90986         5.70882
   C       -2.57138         5.78489         4.59825
   C       -1.41478         6.25793         4.07063
   C       -5.48233         1.32050         8.22829
   C       -5.84321         0.70283         7.09672
   C       -6.17881        -0.69014         7.07873
   N       -5.87406        -1.47551         8.10132
   C       -6.21704        -2.72606         7.72833
   C       -6.76959        -2.73548         6.37004
   C       -7.13652        -4.09746         5.96141
   O       -7.61361        -4.46779         4.90958
   C       -6.77685        -4.89216         7.15337
   C       -6.21972        -4.01586         8.20473
   N       -5.90575        -4.73432         9.31029
   C       -6.23065        -5.97118         9.01732
   C       -6.78672        -6.13927         7.69163
   C       -6.79325        -1.42852         5.95128
   C       -7.31849        -0.95567         4.71314
   C       -7.76006         0.30038         4.47682
   C       -8.31805         0.80975         3.27004
   S       -9.04318         2.39440         3.35512
   C       -9.46843         2.36078         1.67488
   C       -9.07703         1.17058         1.09395
   C       -8.41422         0.29884         1.98591
   C       -7.85981        -1.02009         1.54969
   C       -7.83713        -1.13775         0.02846
   C       -9.18526        -0.71836        -0.54084
   C       -9.38567         0.79303        -0.32586
   C      -10.82337         1.08023        -0.68280
   O      -11.21051         1.42430        -1.76224
   C      -10.13709         3.52087         1.13725
   C      -10.10587         3.95011        -0.12115
   H       -1.46411        11.03912        -3.35938
   H       -3.10919         8.96689        -4.13070
   H       -3.95218         9.20685        -2.60230
   H       -2.60868         6.63603        -3.55514
   H       -4.32916         6.90653        -3.27753
   H       -3.38867         5.69068        -1.37031
   H       -3.82491         7.32518        -0.84327
   H       -1.63075         6.85056         0.06105
   H        0.29707         6.14221        -1.42964
   H        0.49928         7.53226         0.57646
   H        2.27838         9.94490        -0.06084
   H        8.94508         8.43454         4.03081
   H        7.45834         6.83986         5.61963
   H        0.40548         7.79256         2.64428
   H        1.99337         5.94302         4.49483
   H        0.89901         4.72742         6.04852
   H       -0.95715         2.57788         9.09001
   H        0.82774         2.25217         6.63734
   H       -0.56655         1.22296         7.00157
   H        1.75090         1.54482         8.74350
   H        0.52167         0.47653         8.93283
   H        0.16312         4.94308         8.99750
   H        1.40770         4.13903         8.02253
   H        0.64772         3.32950        10.71807
   H        2.08562         3.93014        10.21198
   H       -3.14915         2.21134         9.15821
   H       -5.47834         3.15405         9.26677
   H       -6.76139         3.58892         7.14537
   H       -5.40782         4.89694         5.56794
   H       -3.52818         6.07049         4.18538
   H       -1.45021         6.93283         3.22882
   H       -5.44061         0.74656         9.14283
   H       -5.87545         1.24115         6.16127
   H       -6.07624        -6.75733         9.73610
   H       -7.11747        -7.06661         7.26720
   H       -7.43141        -1.72773         3.96843
   H       -7.75827         1.01501         5.28959
   H       -8.47815        -1.82325         1.96353
   H       -6.84906        -1.14167         1.94589
   H       -7.61574        -2.16803        -0.25218
   H       -7.05302        -0.49877        -0.38308
   H       -9.98121        -1.27146        -0.03619
   H       -9.24371        -0.93591        -1.60787
   H       -8.72596         1.32692        -1.01889
   H      -11.53015         0.87610         0.14577
   H      -10.66882         4.10442         1.87955
   H       -9.55520         3.45618        -0.89998
   H      -10.63634         4.84066        -0.40927
*
