# ORCA input file
# SCF done       -241.447474003712          0.000910849375
! CAM-B3LYP def2-SVP def2/J RIJCOSX Grid4 TightSCF
%maxcore 5000
%tddft
    Mode sTDDFT
    Ethresh 5.0
    maxcore 5000
end

%pal
  nprocs 6
  end
* xyz 0 1
   C       -6.43594         7.53065       -14.00749
   C       -7.38529         6.90802       -14.78035
   C       -7.32981         6.81991       -16.18578
   N       -7.34098         6.70835       -17.32901
   C       -8.54568         6.27156       -14.29596
   N       -9.51525         5.73722       -13.98729
   C       -5.25846         8.22527       -14.51588
   C       -4.54365         8.76940       -13.42084
   C       -3.38310         9.48710       -13.57694
   C       -2.90804         9.68874       -14.87668
   C       -3.62691         9.14005       -15.96418
   C       -4.79698         8.40659       -15.80627
   S       -2.85466         9.50640       -17.47603
   C       -1.60458        10.37583       -16.65451
   C       -1.75082        10.39458       -15.31196
   C       -5.23298         8.42431       -12.16180
   O       -4.81489         8.62972       -11.04234
   C       -6.44874         7.67418       -12.56586
   C       -7.33089         7.09689       -11.70171
   C       -7.45192         7.36496       -10.30111
   C       -7.30011         8.66220        -9.75410
   O       -7.20339         9.68091       -10.63392
   C       -6.90442        10.98179       -10.16777
   C       -6.68392        11.86179       -11.38845
   C       -7.34970         8.81574        -8.38062
   C       -7.56977         7.74185        -7.51388
   C       -7.83301         6.46225        -8.07534
   C       -7.78314         6.30595        -9.44385
   O       -8.08426         5.46277        -7.18605
   C       -8.44699         4.17648        -7.64672
   C       -9.88688         4.11082        -8.14693
   C       -7.53076         7.87601        -6.08459
   C       -7.16201         8.97245        -5.38266
   C       -7.03219         8.98127        -3.96638
   C       -6.53711        10.04024        -3.28550
   C       -6.22303        10.10817        -1.88467
   C       -5.50933        11.19250        -1.42144
   C       -5.05446        11.24352        -0.08945
   C       -4.26323        12.16225         0.58399
   C       -3.72202        13.46914         0.10362
   C       -2.72886        13.28835        -1.05876
   N       -1.82550        14.42439        -1.10318
   C       -4.87192        14.42323        -0.26459
   N       -4.37416        15.76984        -0.51021
   C       -4.02020        11.61544         1.89648
   C       -3.21570        12.02820         2.89350
   C       -3.02705        11.21883         4.13078
   C       -3.93892        10.03654         4.24155
   C       -4.72744         9.62838         3.23045
   C       -4.76416        10.35265         2.01397
   C       -5.37777        10.13176         0.80018
   C       -6.17621         9.06567         0.31991
   C       -6.57772         9.05537        -0.97374
   C       -3.10287        12.09548         5.35329
   C       -2.04882        12.32704         6.13600
   C       -1.98393        13.15756         7.32188
   C       -0.72856        13.32744         7.95363
   O        0.32581        12.68519         7.38276
   C        1.61651        12.83367         7.94113
   C        2.58030        12.03447         7.07756
   C       -0.63619        14.11823         9.08100
   C       -1.74876        14.77004         9.62637
   C       -3.00439        14.59905         8.99165
   C       -3.09510        13.79998         7.86399
   O       -4.05712        15.24193         9.55651
   C       -5.33247        15.16087         8.95051
   C       -6.28175        16.02381         9.76710
   C       -1.65736        15.61559        10.78109
   C       -0.56409        15.81838        11.55756
   C       -0.54784        16.72790        12.64011
   C        0.54010        16.91586        13.43872
   C        0.62495        17.78513        14.54783
   C       -0.11643        18.88039        14.89674
   C       -1.04517        19.73073        14.19021
   C       -1.07193        19.98466        12.84020
   C       -1.96406        20.88228        12.22302
   N       -2.68319        21.58064        11.66179
   C       -0.15683        19.43961        11.92010
   N        0.58517        19.05109        11.13459
   C       -1.79191        20.48954        15.19149
   C       -1.18803        20.28644        16.45813
   C       -0.07237        19.33301        16.31245
   O        0.69905        18.95853        17.16881
   C       -1.63501        20.91043        17.59717
   C       -2.73512        21.76649        17.48432
   C       -3.34182        21.94820        16.21933
   C       -2.88554        21.32289        15.06424
   S       -4.68847        23.03929        16.31969
   C       -4.42805        23.24366        18.01800
   C       -3.38645        22.52888        18.49528
   H       -2.85923         9.88446       -12.72104
   H       -5.30297         8.00416       -16.66774
   H       -0.82516        10.82518       -17.23869
   H       -1.07094        10.88512       -14.63884
   H       -7.98514         6.32119       -12.08107
   H       -5.99703        10.95487        -9.55124
   H       -7.73889        11.36844        -9.56519
   H       -5.84374        11.48608       -11.96685
   H       -6.47587        12.88164       -11.07725
   H       -7.56981        11.85317       -12.01820
   H       -7.21229         9.79349        -7.95131
   H       -7.93701         5.33954        -9.89805
   H       -8.33237         3.53778        -6.76599
   H       -7.74695         3.82733        -8.41550
   H      -10.56390         4.43932        -7.36232
   H      -10.13177         3.08812        -8.41927
   H      -10.03083         4.75040        -9.01375
   H       -7.77907         6.97733        -5.53744
   H       -6.89364         9.88859        -5.89110
   H       -7.29663         8.06804        -3.45262
   H       -6.27515        10.92493        -3.85559
   H       -5.25308        11.98852        -2.10493
   H       -3.15610        13.93338         0.91750
   H       -3.28748        13.13741        -1.99589
   H       -2.13092        12.38822        -0.87955
   H       -2.37875        15.26959        -1.21999
   H       -1.19661        14.34321        -1.89519
   H       -5.62281        14.38407         0.54366
   H       -5.35852        14.08045        -1.18042
   H       -3.97723        16.15193         0.34294
   H       -5.13492        16.37767        -0.79547
   H       -2.63328        12.93708         2.82639
   H       -1.99540        10.83020         4.08035
   H       -3.89947         9.49982         5.17750
   H       -5.34162         8.74506         3.33309
   H       -6.44396         8.26158         0.99040
   H       -7.18075         8.23999        -1.34128
   H       -4.07458        12.52798         5.54107
   H       -1.10432        11.86599         5.88018
   H        1.62744        12.45422         8.97234
   H        1.90484        13.89355         7.94980
   H        2.28754        10.98807         7.06406
   H        3.58775        12.11747         7.47426
   H        2.56624        12.41224         6.05888
   H        0.31747        14.26227         9.55851
   H       -4.04650        13.65909         7.37924
   H       -5.67993        14.11841         8.94093
   H       -5.28182        15.52699         7.91607
   H       -6.32962        15.65910        10.78952
   H       -7.27591        15.99345         9.33096
   H       -5.92979        17.05173         9.78117
   H       -2.56980        16.13832        11.03436
   H        0.36223        15.29945        11.35669
   H       -1.46526        17.26312        12.84902
   H        1.40618        16.28913        13.26647
   H        1.36497        17.51532        15.29741
   H       -1.14905        20.74464        18.54610
   H       -3.38235        21.49064        14.12296
   H       -5.08349        23.89610        18.56126
   H       -3.07654        22.52989        19.52463
*
