# ORCA input file
# SCF done       -197.557554525352          0.000485655639
! CAM-B3LYP def2-SVP def2/J RIJCOSX Grid4 TightSCF
%maxcore 5000
%tddft
    Mode sTDDFT
    Ethresh 5.0
    maxcore 5000
end

%pal
  nprocs 6
  end
* xyz 0 1
   C       -9.85137        -2.16145         7.27344
   C      -10.23723        -3.47367         7.22543
   C       -9.65202        -4.50127         7.99666
   N       -9.22526        -5.38307         8.59386
   C      -11.28570        -3.97380         6.42536
   N      -12.12280        -4.43916         5.79207
   C       -8.77952        -1.61095         8.08769
   C       -8.78290        -0.19602         7.96606
   C       -7.86681         0.60419         8.60657
   C       -6.89264        -0.01891         9.38835
   C       -6.89071        -1.43224         9.49607
   C       -7.82389        -2.24120         8.86180
   S       -5.58895        -1.98303        10.49552
   C       -5.06816        -0.35725        10.76005
   C       -5.82926         0.56496        10.12999
   C       -9.86104         0.20843         7.06264
   O      -10.27091         1.33336         6.85459
   C      -10.41755        -1.05948         6.50728
   C      -11.26398        -1.11710         5.44746
   C      -11.57642         0.00996         4.62402
   C      -12.82710         0.34923         4.20343
   C      -12.77350         1.68317         3.64760
   C      -13.87254         2.37911         3.12476
   N      -14.76641         2.95249         2.68955
   C      -11.49027         2.15613         3.72731
   C      -10.65547         1.11347         4.24997
   C       -9.28482         1.04751         4.29477
   C       -8.35341         2.17835         4.50145
   C       -7.24615         1.66627         5.10721
   C       -7.33658         0.22171         5.13387
   C       -8.54478        -0.15094         4.61404
   C       -6.36854        -0.62333         5.68894
   N       -5.59605        -1.30362         6.19815
   C       -8.61252         3.58293         4.33932
   C       -9.15855         4.18237         3.26429
   C       -9.54423         5.56597         3.25790
   C       -9.54697         6.44321         2.19205
   C       -9.13778         6.25498         0.77766
   N       -9.96545         7.65349         2.66028
   C      -10.24870         7.59857         3.98911
   C      -10.78866         8.78016         4.70839
   C      -10.00547         6.29881         4.41443
   C      -10.26055         5.68964         5.68052
   C      -10.31886         6.29260         6.89179
   C      -10.50444         5.55915         8.10119
   C      -10.33602         4.21825         8.29297
   C      -10.40861         3.94354         9.70703
   C      -10.25696         2.65743        10.24152
   N      -10.08757         1.59656        10.64795
   C      -10.59368         5.11698        10.40140
   C      -10.72658         6.16903         9.44636
   C      -11.14024         7.45335         9.69673
   C      -11.14574         8.15279        10.99562
   C      -11.81240         9.33639        10.82008
   C      -12.24068         9.42792         9.44738
   C      -11.81008         8.31562         8.76798
   C      -12.96233        10.49798         8.90226
   N      -13.53239        11.38198         8.44218
   C      -10.44648         7.73047        12.16147
   C      -10.73729         8.15045        13.41834
   C      -10.01315         7.72296        14.55578
   C      -10.37629         7.88005        15.85941
   C      -11.63029         8.29209        16.45101
   C      -12.88025         8.07925        15.92681
   C      -14.07513         8.46471        16.56769
   N      -15.07328         8.78198        17.03745
   C      -13.11773         7.34517        14.74581
   N      -13.36133         6.70540        13.82410
   C      -11.34107         8.74458        17.80679
   C       -9.99968         8.40194        18.12197
   C       -9.36491         7.77822        16.94533
   O       -8.24610         7.32553        16.85288
   C       -9.44722         8.65654        19.35398
   C      -10.24753         9.28578        20.31272
   C      -11.57868         9.63674        19.98199
   C      -12.14298         9.37228        18.73939
   S      -12.37400        10.41264        21.31454
   C      -10.95080        10.25840        22.28531
   C       -9.92249         9.65771        21.64780
   H       -7.89238         1.67702         8.49497
   H       -7.77867        -3.31196         8.97097
   H       -4.20996        -0.18693        11.38094
   H       -5.65794         1.62494        10.18193
   H      -11.76816        -2.04403         5.20561
   H      -13.72987        -0.21583         4.34314
   H      -11.15950         3.11153         3.37438
   H       -6.40484         2.22406         5.47511
   H       -8.87662        -1.15398         4.42853
   H       -8.27385         4.20654         5.15795
   H       -9.31412         3.61987         2.35095
   H       -9.14259         5.19944         0.52133
   H       -8.13026         6.63894         0.60975
   H       -9.81714         6.78236         0.10929
   H      -10.06252         8.48049         2.09192
   H      -11.13122         9.53169         4.00003
   H      -10.02951         9.23552         5.34558
   H      -11.62914         8.49035         5.33605
   H      -10.42013         4.61998         5.64487
   H      -10.14522         7.35421         6.97688
   H      -10.15273         3.45840         7.55827
   H      -10.76231         5.20028        11.45737
   H      -11.96653        10.10967        11.54884
   H      -12.05800         8.06706         7.75471
   H       -9.65164         7.00886        12.02695
   H      -11.56417         8.82984        13.56779
   H       -9.03404         7.28492        14.39135
   H       -8.42821         8.37671        19.57197
   H      -13.15984         9.66084        18.52934
   H      -10.97321        10.63404        23.28982
   H       -8.96100         9.47671        22.09313
*
