# ORCA input file
# SCF done       -205.887877610681          0.000595272561
! CAM-B3LYP def2-SVP def2/J RIJCOSX Grid4 TightSCF
%maxcore 5000
%tddft
    Mode sTDDFT
    Ethresh 5.0
    maxcore 5000
end

%pal
  nprocs 6
  end
* xyz 0 1
   C        3.85281        -5.32381         1.88026
   C        2.99830        -5.91467         2.76888
   F        3.15659        -5.69223         4.08727
   C        1.95075        -6.75121         2.36175
   C        1.77343        -6.98562         1.02636
   C        2.62336        -6.39980         0.06644
   C        3.68546        -5.55512         0.50128
   C        4.55749        -4.96335        -0.44311
   C        4.36310        -5.20011        -1.77617
   C        3.28840        -6.03080        -2.20566
   C        2.44179        -6.62643        -1.31686
   C        3.27637        -6.08411        -3.68123
   O        2.53573        -6.72141        -4.39540
   C        4.33948        -5.13663        -4.11551
   C        5.10519        -4.76123        -2.95618
   C        6.39186        -4.27978        -2.95192
   C        7.17009        -4.16993        -4.11929
   N        7.82723        -4.08557        -5.05700
   C        7.07315        -3.86466        -1.79360
   N        7.64763        -3.44855        -0.88985
   C        4.35140        -4.72546        -5.41863
   C        4.94283        -3.60031        -6.02471
   S        5.09576        -3.56373        -7.76353
   C        5.81130        -2.01324        -7.71838
   C        5.90377        -1.50775        -6.46042
   C        5.40233        -2.39506        -5.48170
   O        5.36002        -2.19136        -4.15136
   C        5.46677        -0.94349        -3.60263
   C        4.96422         0.18938        -4.10015
   C        5.07245         1.49214        -3.47723
   C        4.22971         2.49860        -3.88085
   C        4.30058         3.77457        -3.28238
   C        3.58790         4.94059        -3.51896
   C        2.54405         5.12273        -4.56809
   C        1.11639         5.21387        -3.99101
   N        0.94497         6.39750        -3.16361
   C        2.83807         6.33780        -5.48725
   N        2.28510         6.23465        -6.81963
   C        4.09894         5.93007        -2.59605
   C        3.82138         7.23750        -2.43326
   C        4.47848         8.05526        -1.37723
   C        5.47969         7.31715        -0.54091
   C        5.79075         6.02696        -0.75614
   C        5.14189         5.29347        -1.77768
   C        5.27561         3.99639        -2.22334
   C        6.16685         2.95820        -1.86765
   C        6.06532         1.74999        -2.47503
   C        3.40975         8.63975        -0.48721
   C        3.46572         9.87025         0.02369
   C        2.46483        10.46090         0.86816
   S        2.82225        11.90651         1.75466
   C        1.24498        11.95833         2.42308
   C        0.46654        10.93371         1.99170
   C        1.15715        10.07864         1.09995
   O        0.63043         8.94889         0.52616
   C       -0.67963         8.89379         0.28133
   C       -1.31891         7.76012        -0.10125
   C       -0.80942         6.44654        -0.23187
   C        0.31285         5.82302         0.24273
   C        0.70891         4.53001        -0.38851
   O        0.06413         3.89689        -1.19782
   C        2.04147         4.21148         0.14893
   C        2.81550         3.10901        -0.07063
   C        4.03125         2.97139         0.63416
   C        4.45859         4.02220         1.49568
   C        5.68050         3.88725         2.18167
   C        6.40995         2.73970         2.03407
   C        5.98854         1.67995         1.22063
   C        4.81764         1.80675         0.52498
   F        7.57483         2.60923         2.69491
   C        3.64180         5.15999         1.69398
   C        2.43169         5.23386         1.06114
   C        1.31385         6.16333         1.21748
   C        1.17225         7.04132         2.26807
   C       -0.06084         7.59395         2.65034
   N       -1.05873         8.05920         2.97861
   C        2.22720         7.45414         3.10379
   N        3.05305         7.88712         3.77388
   H        4.65094        -4.68818         2.23094
   H        1.30858        -7.19052         3.10849
   H        0.97291        -7.62602         0.68778
   H        5.35352        -4.32888        -0.08629
   H        1.64038        -7.26155        -1.66348
   H        3.74501        -5.33629        -6.08181
   H        6.14034        -1.55328        -8.62904
   H        6.34663        -0.55644        -6.22858
   H        5.95474        -1.00481        -2.63951
   H        4.39902         0.15154        -5.02321
   H        3.49746         2.30651        -4.65289
   H        2.56286         4.22502        -5.19932
   H        0.89260         4.28181        -3.44904
   H        0.41187         5.29205        -4.82505
   H        1.43150         6.26681        -2.28259
   H       -0.03809         6.52421        -2.94978
   H        3.91994         6.45881        -5.58740
   H        2.42252         7.23656        -5.03107
   H        2.64483         5.41502        -7.29746
   H        1.27467         6.15942        -6.78243
   H        3.08317         7.74431        -3.03600
   H        4.99738         8.89379        -1.86598
   H        5.94746         7.88911         0.24547
   H        6.53719         5.53089        -0.15245
   H        6.93287         3.14662        -1.13027
   H        6.76104         0.96398        -2.22713
   H        2.58633         7.98215        -0.25852
   H        4.31967        10.50315        -0.18092
   H        0.98484        12.73852         3.10928
   H       -0.54120        10.76376         2.32489
   H       -1.22950         9.82663         0.33516
   H       -2.34738         7.89116        -0.40437
   H       -1.40492         5.79933        -0.87216
   H        2.49219         2.33550        -0.75094
   H        6.02823         4.67607         2.83051
   H        6.59870         0.79316         1.15493
   H        4.47274         1.00757        -0.11320
   H        3.98437         5.93384         2.36254
*
