# ORCA input file
# SCF done       -256.666972152107          0.000757096835
! CAM-B3LYP def2-SVP def2/J RIJCOSX Grid4 TightSCF
%maxcore 5000
%tddft
    Mode sTDDFT
    Ethresh 5.0
    maxcore 5000
end

%pal
  nprocs 6
  end
* xyz 0 1
   C      -10.66175        10.21892        -3.80381
   C      -10.49973        10.92278        -2.63626
   C      -11.42377        10.90572        -1.57492
   N      -12.13906        10.90730        -0.67647
   C       -9.43458        11.82154        -2.43222
   N       -8.60943        12.60500        -2.27307
   C      -11.88134         9.53885        -4.22302
   C      -11.85292         9.40060        -5.64214
   C      -12.89155         8.83949        -6.32626
   C      -14.01878         8.37505        -5.61015
   C      -14.04519         8.49701        -4.19104
   C      -12.95738         9.08899        -3.50817
   C      -15.17378         8.02670        -3.48999
   C      -16.22927         7.46631        -4.15650
   C      -16.20318         7.34766        -5.55379
   C      -15.12149         7.79217        -6.26471
   C      -10.57812         9.93690        -6.15930
   O      -10.22581        10.04337        -7.31313
   C       -9.78406        10.27599        -4.95039
   C       -8.44339        10.50278        -5.03713
   C       -7.48345        10.41285        -4.00435
   S       -7.68964         9.34377        -2.64150
   C       -6.14373         9.79340        -1.98867
   C       -5.52408        10.74464        -2.78902
   C       -6.25974        11.06512        -3.93479
   C       -5.81628        12.08256        -4.93438
   C       -4.31832        12.35861        -4.80209
   C       -3.52400        11.20641        -5.34883
   O       -3.95266        10.16556        -5.75125
   C       -1.97841        11.44662        -5.37308
   F       -1.65927        12.74053        -5.53218
   F       -1.40989        11.04976        -4.22229
   F       -1.39265        10.77163        -6.35932
   C       -3.96263        12.61326        -3.32669
   C       -4.19200        11.35855        -2.48619
   C       -5.64147         9.21253        -0.79515
   C       -6.26791         8.23008        -0.10951
   C       -5.79759         7.59338         1.09020
   C       -4.78091         8.10948         1.86301
   C       -4.35012         7.42540         3.01513
   C       -3.35875         7.73413         3.93706
   C       -2.47647         8.93316         3.87963
   C       -2.23681         9.60498         5.24298
   N       -2.10714        11.03807         5.04724
   C       -1.13900         8.59646         3.15229
   N       -0.32979         7.54992         3.72731
   C       -3.32313         6.64399         4.88741
   C       -2.54803         6.40589         5.96158
   C       -2.68528         5.17090         6.78001
   C       -3.74755         4.22104         6.30764
   C       -4.53615         4.48590         5.25163
   C       -4.36034         5.67210         4.50068
   C       -4.98029         6.16111         3.37178
   C       -6.04147         5.66623         2.57583
   C       -6.43402         6.36557         1.48441
   C       -3.00128         5.47440         8.22377
   C       -3.62505         6.58223         8.63026
   C       -4.04580         6.85285         9.97775
   S       -4.14324         8.49197        10.51632
   C       -4.71510         8.00670        12.09469
   C       -4.83374         6.62078        12.16650
   C       -4.45424         5.98228        10.97187
   C       -4.59215         4.50219        10.79567
   C       -5.73581         3.99796        11.68681
   C       -7.06628         4.55791        11.26357
   O       -7.88096         5.07693        11.96699
   C       -7.38681         4.39643         9.74145
   F       -6.89377         3.25377         9.23171
   F       -8.69814         4.38950         9.51925
   F       -6.86081         5.39994         9.02210
   C       -5.42013         4.35710        13.13882
   C       -5.36389         5.87387        13.34855
   C       -4.97001         9.03773        13.02864
   C       -5.37899         8.90348        14.32059
   C       -5.59448        10.02109        15.15257
   C       -5.97459         9.93221        16.46572
   C       -6.23426        11.03182        17.37366
   C       -6.06846        12.37041        17.12099
   C       -6.33429        13.39081        18.05730
   N       -6.53466        14.27077        18.76758
   C       -5.59651        12.92820        15.91543
   N       -5.20785        13.46191        14.97503
   C       -6.69125        10.46602        18.63978
   C       -6.67418         9.04644        18.53466
   C       -6.21435         8.66026        17.19019
   O       -6.06415         7.52418        16.78188
   C       -7.04757         8.23936        19.56974
   C       -7.47005         8.82634        20.78327
   C       -7.49557        10.24599        20.89632
   C       -7.09858        11.05584        19.80695
   C       -7.92321        10.82187        22.10985
   C       -8.30709        10.03515        23.16161
   C       -8.28033         8.63717        23.04920
   C       -7.87031         8.04570        21.88521
   H      -12.85738         8.75180        -7.40209
   H      -12.99667         9.16476        -2.43249
   H      -15.19012         8.12351        -2.41426
   H      -17.09082         7.11214        -3.61034
   H      -17.04427         6.90261        -6.06424
   H      -15.09610         7.70332        -7.34105
   H       -8.06344        10.69774        -6.03553
   H       -6.37087        13.00963        -4.76553
   H       -6.04567        11.73637        -5.94477
   H       -4.04850        13.24660        -5.38564
   H       -4.61086        13.41366        -2.96672
   H       -2.92862        12.94465        -3.22650
   H       -4.13656        11.62317        -1.42830
   H       -3.40401        10.62310        -2.68116
   H       -4.68457         9.58644        -0.46063
   H       -7.20107         7.85161        -0.51078
   H       -4.31682         9.04809         1.60131
   H       -2.97884         9.68743         3.26593
   H       -1.35828         9.16282         5.74528
   H       -3.10751         9.44128         5.88398
   H       -1.26703        11.25303         4.52085
   H       -2.04868        11.51996         5.93686
   H       -0.52786         9.50226         3.10794
   H       -1.37701         8.29732         2.12816
   H       -0.83771         6.67267         3.74621
   H       -0.05149         7.77806         4.67489
   H       -1.78789         7.09776         6.29463
   H       -1.71484         4.64946         6.75937
   H       -3.86372         3.31492         6.88246
   H       -5.30121         3.78572         4.94950
   H       -6.52545         4.74018         2.84895
   H       -7.24211         6.00111         0.86674
   H       -2.72832         4.70021         8.92428
   H       -3.83128         7.36966         7.91707
   H       -3.67395         3.99543        11.10686
   H       -4.75907         4.26562         9.74457
   H       -5.81579         2.90870        11.57486
   H       -4.45962         3.90755        13.39539
   H       -6.17634         3.93874        13.80296
   H       -4.75033         6.08191        14.22765
   H       -6.37044         6.24479        13.55953
   H       -4.80542        10.04166        12.65211
   H       -5.54755         7.93688        14.75824
   H       -5.45451        10.99881        14.70987
   H       -7.02317         7.16491        19.46273
   H       -7.13094        12.12697        19.92644
   H       -7.94167        11.89875        22.19205
   H       -8.63386        10.48610        24.08667
   H       -8.58653         8.03138        23.88902
   H       -7.84775         6.96959        21.79214
*
