# ORCA input file
# SCF done       -219.066448895985          0.000252208767
! CAM-B3LYP def2-SVP def2/J RIJCOSX Grid4 TightSCF
%maxcore 5000
%tddft
    Mode sTDDFT
    Ethresh 5.0
    maxcore 5000
end

%pal
  nprocs 6
  end
* xyz 0 1
   C        0.04823        -1.21578        -0.21976
   C       -0.80848        -1.33949         0.99819
   O       -0.98319        -2.35322         1.63749
   C       -1.31925         0.01720         1.24977
   C       -0.93318         0.85960         0.20585
   C       -0.22088         0.08153        -0.80419
   C       -0.09291         0.43338        -2.12175
   C        0.37972        -0.43494        -3.12578
   N        0.72907        -1.11378        -3.98334
   C       -0.51765         1.66836        -2.65750
   N       -0.84982         2.64842        -3.15279
   C       -1.25802         2.22156         0.22932
   C       -1.97699         2.70710         1.29069
   C       -2.40459         1.87769         2.35078
   C       -2.06872         0.49226         2.34365
   C       -2.49196        -0.33083         3.40679
   C       -3.22347         0.19721         4.43479
   C       -3.55898         1.56064         4.44636
   C       -3.15865         2.38321         3.42923
   C        0.92121        -2.21635        -0.50948
   C        2.04675        -2.18880        -1.36448
   C        2.76351        -1.09424        -1.82631
   C        3.81882        -1.46680        -2.64774
   C        3.92169        -2.86442        -2.81130
   S        2.73148        -3.70640        -1.93285
   C        4.99278        -3.13814        -3.69252
   C        5.56607        -1.91135        -4.09334
   C        4.84849        -0.82422        -3.44635
   C        5.06546         0.51662        -3.56632
   C        6.10266         1.05543        -4.35734
   N        6.95022         1.50720        -4.98269
   C        4.25819         1.45178        -2.88421
   N        3.59554         2.19869        -2.32010
   C        6.61420        -2.07332        -4.98837
   C        6.85650        -3.41294        -5.27317
   S        5.76438        -4.48341        -4.40360
   C        7.82475        -3.97587        -6.14927
   C        8.69226        -3.22726        -6.98174
   C        9.62681        -3.87135        -7.86158
   N       10.42745        -3.12015        -8.64492
   C       10.34673        -1.83068        -8.60206
   C        9.42019        -1.19374        -7.73453
   N        8.63816        -1.87873        -6.96602
   F        9.33277         0.12912        -7.68911
   F       11.15425        -1.12890        -9.38860
   C        9.76316        -5.27474        -7.96252
   C        8.90693        -6.02491        -7.12402
   C        7.96106        -5.37955        -6.24927
   N        7.24591        -6.26769        -5.55745
   S        7.70806        -7.75244        -5.95842
   N        8.83324        -7.35323        -7.02387
   C       10.68622        -5.87495        -8.85846
   C       10.91785        -7.23776        -9.01583
   C       11.87109        -7.49340        -9.98970
   C       12.37059        -6.31565       -10.58847
   S       11.67097        -4.90027        -9.93432
   C       13.31273        -6.68755       -11.57614
   C       13.41510        -8.09539       -11.59688
   C       12.50860        -8.64549       -10.60492
   C       12.28775        -9.96530       -10.33941
   C       12.97226       -10.97898       -11.04250
   N       13.54066       -11.79057       -11.61997
   C       11.37408       -10.39487        -9.35425
   N       10.63916       -10.74992        -8.54895
   C       14.29270        -8.56111       -12.56614
   C       14.85840        -7.52826       -13.30022
   S       14.31539        -5.95191       -12.73756
   C       15.79312        -7.59803       -14.35823
   C       16.10459        -8.65505       -15.15415
   C       17.38495        -8.61944       -15.92388
   O       18.07470        -7.63969       -16.09999
   C       17.61911       -10.00858       -16.34843
   C       16.51908       -10.79276       -15.99740
   C       15.49176        -9.94383       -15.39946
   C       14.15634       -10.24471       -15.34887
   C       13.15284        -9.32075       -14.99599
   N       12.29581        -8.59953       -14.74364
   C       13.60641       -11.48299       -15.74494
   N       13.09904       -12.46318       -16.05811
   C       16.51301       -12.16967       -16.25280
   C       17.60231       -12.72822       -16.86977
   C       18.72050       -11.95939       -17.26097
   C       18.74328       -10.55921       -16.99415
   C       19.86373        -9.79630       -17.38081
   C       20.91856       -10.39647       -18.01155
   C       20.90103       -11.77488       -18.27868
   C       19.82813       -12.54007       -17.91150
   H       -0.93685         2.87967        -0.56146
   H       -2.23154         3.75637         1.32835
   H       -2.22807        -1.37642         3.38733
   H       -3.54940        -0.43395         5.24793
   H       -4.13733         1.95606         5.26818
   H       -3.41584         3.43248         3.43599
   H        0.75678        -3.13899         0.03907
   H        2.53854        -0.08367        -1.53801
   H        7.18821        -1.28117        -5.43069
   H       10.39672        -7.97609        -8.43482
   H       14.54752        -9.59446       -12.71558
   H       16.39051        -6.70749       -14.52988
   H       15.67722       -12.78264       -15.95735
   H       17.61712       -13.78986       -17.06959
   H       19.86619        -8.73853       -17.17015
   H       21.77561        -9.81143       -18.30982
   H       21.74488       -12.22767       -18.77782
   H       19.81241       -13.60073       -18.11630
*
