# ORCA input file
# SCF done       -204.412109184195          0.000915778042
! CAM-B3LYP def2-SVP def2/J RIJCOSX Grid4 TightSCF
%maxcore 5000
%tddft
    Mode sTDDFT
    Ethresh 5.0
    maxcore 5000
end

%pal
  nprocs 6
  end
* xyz 0 1
   C       21.61759        -1.19346        -0.01584
   C       22.94576        -0.93586         0.12110
   S       23.50623        -1.36486         1.69712
   C       21.91725        -1.90243         2.18806
  Cl       21.63060        -2.51748         3.73956
   C       21.02763        -1.74648         1.16681
   C       19.60517        -1.98985         0.93387
   O       18.79290        -2.45032         1.71500
   C       19.35414        -1.55752        -0.45489
   C       20.59428        -1.06952        -1.03758
   C       20.81648        -0.57436        -2.29571
   C       22.09789        -0.13459        -2.69070
   N       23.13268         0.22930        -3.02602
   C       19.85765        -0.43931        -3.31903
   N       19.12657        -0.30435        -4.19435
   C       18.14222        -1.60285        -1.09397
   C       16.88404        -2.02777        -0.63691
   C       15.74907        -1.97117        -1.45875
   C       14.60945        -2.41042        -0.81661
   C       14.86867        -2.81522         0.51844
   S       16.50454        -2.65429         0.96632
   C       13.64879        -3.22261         1.10171
   C       12.61850        -3.07678         0.14454
   C       13.18982        -2.56918        -1.09161
   C       12.52905        -2.29623        -2.25263
   C       13.19029        -1.80200        -3.39741
   N       13.72172        -1.40041        -4.33015
   C       11.13696        -2.48837        -2.38500
   N       10.00621        -2.64152        -2.49660
   C       11.37185        -3.42772         0.63751
   C       11.43632        -3.84067         1.96529
   S       13.07288        -3.80510         2.60292
   C       10.34583        -4.22149         2.78685
   C       10.54543        -4.61161         4.13143
   C        9.45225        -4.93572         5.00949
   N        9.70407        -5.29250         6.27317
   C       10.94035        -5.34618         6.70660
   C       12.02814        -5.01804         5.83424
   N       11.79944        -4.66547         4.59230
   C       13.36391        -5.07026         6.30480
   N       14.43227        -5.11930         6.71375
   C       11.18650        -5.73250         8.04763
   N       11.41398        -6.03786         9.12744
   C        8.10242        -4.87763         4.59269
   C        7.90036        -4.52942         3.23601
   C        8.99909        -4.21175         2.35102
   N        8.56443        -3.90909         1.12712
   S        6.96691        -4.01230         1.08209
   N        6.72784        -4.43966         2.60711
   C        7.04589        -5.12682         5.50368
   C        5.68167        -5.05050         5.23768
   C        4.91983        -5.30360         6.36703
   C        5.70628        -5.58658         7.50715
   S        7.38377        -5.53535         7.17797
   C        4.83898        -5.81009         8.59959
   C        3.50519        -5.65764         8.15657
   C        3.51489        -5.35174         6.73718
   C        2.42982        -5.17671         5.92973
   C        2.55252        -4.88848         4.55400
   N        2.64948        -4.64370         3.43830
   C        1.11674        -5.27192         6.43788
   N        0.05749        -5.34760         6.87045
   C        2.57335        -5.86216         9.16206
   C        3.17165        -6.18281        10.37514
   S        4.92856        -6.19140        10.25528
   C        2.56914        -6.41881        11.62816
   C        1.27415        -6.72557        11.92404
   C        0.80730        -6.48776        13.32920
   O        1.50799        -6.24639        14.28210
   C       -0.65418        -6.56520        13.24648
   C       -1.71801        -6.36882        14.07567
   S       -3.21804        -6.64753        13.22239
   C       -2.38857        -7.03877        11.75965
   C       -1.04201        -6.95058        11.92097
   C        0.15189        -7.17928        11.12600
   C        0.16721        -7.90615         9.96322
   C       -1.02627        -8.36507         9.36624
   N       -1.98638        -8.74745         8.86908
   C        1.33001        -8.34040         9.30290
   N        2.25767        -8.72959         8.74904
  Cl       -1.70174        -5.91929        15.70838
   H       23.63762        -0.52594        -0.58761
   H       18.12139        -1.25217        -2.11930
   H       15.79390        -1.61386        -2.47257
   H       10.44372        -3.39324         0.09731
   H        5.30495        -4.81314         4.25970
   H        1.51240        -5.73596         9.04719
   H        3.20414        -6.27046        12.49702
   H       -2.95401        -7.29300        10.88520
*
