# ORCA input file
# SCF done       -205.483442254559          0.000616959759
! CAM-B3LYP def2-SVP def2/J RIJCOSX Grid4 TightSCF
%maxcore 5000
%tddft
    Mode sTDDFT
    Ethresh 5.0
    maxcore 5000
end

%pal
  nprocs 6
  end
* xyz 0 1
   C        3.15223         1.99659        -8.30187
   C        1.90057         1.47595        -8.49026
   C        1.46927         0.37681        -7.73298
   C        2.29449        -0.18591        -6.79762
   C        3.58987         0.32445        -6.57841
   C        4.44910        -0.25804        -5.61797
   C        5.70085         0.26282        -5.43232
   C        6.12649         1.39085        -6.19331
   C        5.32082         1.96822        -7.13152
   C        4.02689         1.44167        -7.34720
   C        7.48632         1.77461        -5.77456
   O        8.19287         2.64409        -6.22943
   C        7.79669         0.89813        -4.60708
   C        6.79216        -0.13942        -4.55000
   C        6.93376        -1.38322        -3.98799
   C        8.10892        -1.83178        -3.35398
   N        9.05310        -2.26147        -2.86181
   C        5.94952        -2.38967        -4.05464
   N        5.17232        -3.23467        -4.05916
   C        8.83589         1.23145        -3.79010
   C        9.07630         0.83325        -2.45754
   C        8.19012         0.31951        -1.52047
   C        8.78575         0.06870        -0.28966
   C       10.14799         0.40978        -0.26438
   S       10.66901         1.04479        -1.77579
   C       10.86261         0.26756         0.93690
   C       10.23084        -0.35195         2.01822
   C        8.87671        -0.96653         1.83790
   O        8.11292        -0.39016         0.78118
   C       11.01537        -0.36074         3.15626
   C       12.25710         0.24261         2.96942
   S       12.44716         0.83395         1.33914
   C       13.28378         0.40168         3.92813
   C       14.50775         1.02245         3.58150
   C       15.57920         1.19582         4.52556
   N       16.71398         1.78455         4.13435
   C       16.84362         2.20159         2.89715
   C       15.77586         2.03278         1.95929
   N       14.65524         1.45533         2.32682
   C       15.91192         2.48993         0.62550
   N       16.04842         2.87219        -0.44541
   C       18.05033         2.82905         2.49909
   N       19.00981         3.34284         2.14314
   C       15.48102         0.76885         5.86961
   C       14.25456         0.15610         6.22608
   C       13.18003        -0.02847         5.27403
   N       12.13015        -0.63007         5.83095
   S       12.44745        -0.93342         7.37652
   N       13.93031        -0.31994         7.42675
   C       16.55883         0.94993         6.77076
   C       16.58971         0.61420         8.11743
   C       17.79960         0.92650         8.72567
   C       18.72418         1.48727         7.83033
   S       18.05915         1.66210         6.24017
   C       20.02666         1.74787         8.28609
   C       20.31036         1.59472         9.64903
   C       19.19733         1.29512        10.60631
   O       18.07235         0.65096        10.01460
   C       21.64066         1.80533         9.95431
   C       22.41702         2.12618         8.84325
   S       21.43002         2.16288         7.38516
   C       23.78457         2.40537         8.68135
   C       24.82677         2.43196         9.57443
   C       26.19727         2.73783         9.19157
   C       26.65728         3.11909         7.95607
   C       28.01045         3.40136         7.67148
   N       29.08896         3.64549         7.36159
   C       25.89275         3.30736         6.78531
   N       25.36422         3.49362         5.78202
   C       27.03948         2.59122        10.37466
   C       26.21009         2.24060        11.47482
   C       26.71153         2.03897        12.72819
   C       28.10033         2.17881        12.94388
   C       28.67847         1.98322        14.21336
   C       30.02753         2.12244        14.39612
   C       30.85664         2.46334        13.31720
   C       30.32607         2.66035        12.07133
   C       28.94088         2.52541        11.84747
   C       28.38959         2.72957        10.56122
   C       24.81167         2.14199        11.02769
   O       23.86633         1.87281        11.74403
   H        3.48961         2.84301        -8.88196
   H        1.23621         1.90837        -9.22334
   H        0.47948        -0.02294        -7.89503
   H        1.96832        -1.03469        -6.21460
   H        4.08959        -1.09731        -5.04312
   H        5.66546         2.81671        -7.70363
   H        9.52969         1.95626        -4.20496
   H        7.14305         0.16687        -1.70491
   H        8.26687        -0.85220         2.73811
   H        8.99134        -2.04409         1.63120
   H       10.72842        -0.78439         4.10056
   H       15.75926         0.15908         8.62205
   H       18.85285         2.23595        11.06881
   H       19.53639         0.62819        11.40364
   H       22.05917         1.73535        10.94155
   H       24.04373         2.62610         7.65282
   H       26.05544         1.77448        13.54426
   H       28.03450         1.72109        15.04018
   H       30.46294         1.97104        15.37260
   H       31.91904         2.56895        13.47822
   H       30.96063         2.92306        11.23766
   H       29.05688         2.99006         9.75580
*
