# ORCA input file
# SCF done       -174.074973810826          0.000370525965
! CAM-B3LYP def2-SVP def2/J RIJCOSX Grid4 TightSCF
%maxcore 5000
%tddft
    Mode sTDDFT
    Ethresh 5.0
    maxcore 5000
end

%pal
  nprocs 6
  end
* xyz 0 1
   C        2.42115        -2.54517         2.91411
   O        3.39304        -3.12894         3.32329
   C        1.00051        -2.66872         3.28302
   C        0.26891        -1.76477         2.50528
   C       -1.10105        -1.66257         2.62827
   C       -1.72860        -2.49229         3.55393
   C       -1.00294        -3.38765         4.32451
   C        0.38006        -3.49043         4.20104
   C        1.20006        -1.03576         1.61752
   O        0.97575        -0.18443         0.80403
   N        2.47431        -1.56085         1.92132
   C        3.66970        -1.21120         1.31975
   C        3.85972        -0.28625         0.32129
   C        5.20762        -0.23039        -0.05239
   C        6.01534        -1.11769         0.67933
   S        5.13288        -2.02555         1.83225
   C        7.34606        -1.01786         0.20549
   C        7.37617        -0.06102        -0.83286
   C        6.03366         0.47105        -1.01930
   C        5.64570         1.42004        -1.91827
   C        6.55663         2.02207        -2.81289
   N        7.28713         2.51345        -3.54751
   C        4.31250         1.87163        -2.02263
   N        3.23579         2.25209        -2.12266
   C        8.63333         0.08220        -1.39647
   C        9.57029        -0.75690        -0.79898
   S        8.87378        -1.72155         0.49776
   C       10.92543        -0.91896        -1.17077
   C       11.76998        -1.82189        -0.48152
   C       13.12077        -2.08770        -0.90508
   N       13.86588        -2.96304        -0.21977
   C       13.36732        -3.56786         0.83095
   C       12.02382        -3.30359         1.25111
   N       11.27740        -2.45179         0.58772
   C       11.48754        -3.95510         2.38831
   N       11.08240        -4.49684         3.31263
   C       14.17562        -4.48422         1.54840
   N       14.80652        -5.22892         2.14749
   C       13.69348        -1.47259        -2.03898
   C       12.87684        -0.51778        -2.69068
   C       11.52264        -0.24451        -2.26364
   N       10.94670         0.67895        -3.03344
   S       11.97865         1.15857        -4.16128
   N       13.21250         0.22223        -3.74746
   C       14.98341        -1.84416        -2.49890
   C       15.63118        -1.36994        -3.63405
   C       16.84865        -2.00314        -3.83842
   C       17.13973        -2.96205        -2.84502
   S       15.90964        -3.07711        -1.66014
   C       18.37295        -3.57299        -3.16795
   C       18.85859        -3.01149        -4.37001
   C       17.92672        -1.98964        -4.81549
   C       18.04094        -1.18441        -5.90997
   C       19.15875        -1.22858        -6.77115
   N       20.06900        -1.23353        -7.46810
   C       17.05558        -0.23127        -6.24602
   N       16.25722         0.54163        -6.52873
   C       20.03749        -3.59857        -4.81105
   C       20.47438        -4.60057        -3.95848
   S       19.39777        -4.79124        -2.56986
   C       21.61301        -5.44192        -4.00625
   C       22.45740        -5.69421        -5.04488
   C       22.27740        -5.28405        -6.46210
   O       21.22125        -5.02775        -6.98516
   O       23.44565        -5.28968        -7.10810
   C       23.39533        -4.96753        -8.49055
   C       23.58437        -6.50855        -4.80428
   N       24.49389        -7.17626        -4.59727
   H       -1.65843        -0.96413         2.02435
   H       -2.80006        -2.43730         3.67224
   H       -1.51872        -4.01800         5.03280
   H        0.95146        -4.18516         4.79610
   H        3.06314         0.29691        -0.10270
   H        8.89534         0.74022        -2.20446
   H       15.19920        -0.61106        -4.26001
   H       20.55367        -3.32373        -5.71065
   H       21.83853        -5.94901        -3.07340
   H       22.93446        -3.98800        -8.63520
   H       22.81015        -5.71459        -9.03078
   H       24.42515        -4.96456        -8.83659
*
