# ORCA input file
# SCF done       -196.645529080282          0.000696824233
! CAM-B3LYP def2-SVP def2/J RIJCOSX Grid4 TightSCF
%maxcore 5000
%tddft
    Mode sTDDFT
    Ethresh 5.0
    maxcore 5000
end

%pal
  nprocs 6
  end
* xyz 0 1
   C       -0.50963         2.96589         5.57023
   C        0.31561         1.98100         5.09296
   C        1.59119         1.69282         5.62315
   N        2.63528         1.40810         6.00597
   C        0.03826         1.13050         4.00204
   N       -0.10570         0.40682         3.12192
   C       -0.19084         3.87666         6.66437
   C       -1.25237         4.80650         6.80753
   C       -1.24612         5.80169         7.75514
   C       -0.14095         5.88284         8.60733
   C        0.91282         4.94859         8.46115
   C        0.90734         3.94383         7.50015
   S        2.17032         5.23348         9.62166
   C        1.29476         6.57242        10.27835
   C        0.11411         6.80248         9.66309
   C       -2.29016         4.50703         5.81283
   O       -3.33395         5.11759         5.64737
   C       -1.82629         3.32707         5.07328
   C       -2.54411         2.65130         4.12191
   C       -3.81315         2.91740         3.58237
   C       -4.40406         2.06630         2.64046
   C       -5.64542         2.51145         2.22910
   C       -6.01001         3.72848         2.85319
   S       -4.84124         4.30166         3.95113
   C       -7.28529         4.10259         2.36361
   C       -7.72682         3.13562         1.44169
   C       -6.71208         2.10174         1.32755
   C       -6.75768         0.98599         0.54525
   C       -5.71181         0.03859         0.52319
   N       -4.87042        -0.73949         0.50398
   C       -7.85650         0.69811        -0.29252
   N       -8.74403         0.45607        -0.97685
   C       -8.97947         3.42703         0.90486
   C       -9.49454         4.60849         1.40495
   S       -8.41174         5.36952         2.56215
   C      -10.74353         5.21514         1.06758
   C      -11.15185         6.44365         1.58574
   N      -12.27888         7.06888         1.29530
   C      -13.15699         6.54530         0.45249
   C      -12.89175         5.28258        -0.14465
   C      -11.66044         4.61139         0.16639
   N      -11.55967         3.44891        -0.47716
   S      -12.87204         3.22732        -1.37453
   N      -13.63840         4.58662        -0.99909
   C      -14.33159         7.30246         0.17268
   C      -15.39090         6.98383        -0.65719
   C      -16.33871         8.00350        -0.68554
   C      -15.98694         9.09953         0.12983
   S      -14.49921         8.87048         0.93194
   C      -16.99578        10.08890         0.00902
   C      -17.98217         9.61556        -0.87909
   C      -17.60082         8.29254        -1.34420
   C      -18.27899         7.51348        -2.23507
   C      -17.82140         6.23760        -2.62680
   N      -17.46070         5.19757        -2.94680
   C      -19.49025         7.94654        -2.81495
   N      -20.47618         8.31016        -3.27412
   C      -18.99577        10.53755        -1.10452
   C      -18.79627        11.71730        -0.40291
   S      -17.34039        11.65295         0.58233
   C      -19.60756        12.87484        -0.37224
   C      -20.54347        13.27597        -1.27397
   C      -20.86041        12.86752        -2.62803
   C      -19.98564        12.38685        -3.56777
   C      -20.33218        12.14611        -4.91416
   N      -20.55660        11.93860        -6.02006
   C      -18.61382        12.17164        -3.33402
   N      -17.48452        12.00941        -3.20315
   C      -22.21616        13.32503        -2.90863
   C      -22.62778        14.19971        -1.86914
   C      -21.56755        14.27658        -0.85042
   O      -21.53380        14.95856         0.14786
   C      -23.85120        14.82602        -1.87756
   C      -24.70978        14.56811        -2.95057
   C      -24.29598        13.67808        -3.97197
   C      -23.05571        13.05050        -3.97006
   S      -25.52253        13.49897        -5.18487
   C      -26.55490        14.59807        -4.33807
   C      -26.01515        15.07923        -3.19684
   H       -2.06952         6.49430         7.83595
   H        1.73406         3.25686         7.43231
   H        1.72552         7.11339        11.09838
   H       -0.56355         7.59121         9.93560
   H       -2.09247         1.75708         3.70937
   H       -3.91854         1.17077         2.29458
   H       -9.51207         2.83142         0.18622
   H      -10.51335         6.96795         2.28535
   H      -15.43832         6.05722        -1.19984
   H      -19.86147        10.35953        -1.71612
   H      -19.52303        13.50100         0.51074
   H      -24.13665        15.49426        -1.08005
   H      -22.78526        12.37211        -4.76237
   H      -27.51881        14.81902        -4.75370
   H      -26.51093        15.77202        -2.54130
*
