# ORCA input file
# SCF done       -169.514426675955          0.000344417130
! CAM-B3LYP def2-SVP def2/J RIJCOSX Grid4 TightSCF
%maxcore 5000
%tddft
    Mode sTDDFT
    Ethresh 5.0
    maxcore 5000
end

%pal
  nprocs 6
  end
* xyz 0 1
   C       -1.70135        -9.54781         6.34888
   N       -0.88258        -9.21708         5.39513
   N       -1.23448        -9.18519         4.12859
   C       -2.44558        -9.48775         3.70499
   C       -3.43775        -9.86930         4.66052
   C       -3.04096        -9.89657         6.04452
   N       -4.09797       -10.26600         6.74332
   O       -5.07246       -10.45282         5.86210
   N       -4.70510       -10.22216         4.60558
   C       -2.70774        -9.41383         2.30762
   C       -3.89111        -9.69162         1.64503
   C       -3.75802        -9.49668         0.27399
   C       -2.46070        -9.06673        -0.09276
   S       -1.41358        -8.90887         1.24300
   C       -2.42442        -8.88532        -1.49537
   C       -3.69760        -9.20215        -2.01704
   C       -4.57332        -9.59695        -0.92381
   C       -5.88038        -9.97506        -1.01410
   C       -6.56186       -10.02690        -2.24919
   N       -7.12241       -10.06926        -3.24843
   C       -6.64243       -10.34014         0.11675
   N       -7.27196       -10.63702         1.02738
   C       -3.76980        -9.04641        -3.39243
   C       -2.56258        -8.60916        -3.92923
   S       -1.32068        -8.39483        -2.70600
   C       -2.29435        -8.33001        -5.29315
   C       -1.02500        -7.86534        -5.70745
   C       -0.73215        -7.54193        -7.07902
   N        0.48681        -7.10050        -7.40696
   C        1.40696        -6.96577        -6.48305
   C        1.11553        -7.28812        -5.11766
   N       -0.07436        -7.72086        -4.77809
   C        2.11005        -7.14308        -4.11847
   N        2.93270        -7.01628        -3.33223
   C        2.69308        -6.49769        -6.85085
   N        3.74055        -6.12161        -7.11975
   C       -1.69278        -7.66759        -8.10869
   C       -2.95858        -8.15234        -7.70198
   C       -3.25316        -8.47631        -6.32364
   N       -4.50696        -8.90929        -6.18384
   S       -5.23689        -8.91370        -7.60912
   N       -4.01459        -8.36768        -8.48779
   C       -1.38314        -7.31363        -9.44620
   C       -2.23857        -7.37798       -10.54204
   C       -1.62322        -6.94055       -11.70441
   C       -0.28527        -6.53898       -11.49895
   S        0.20861        -6.70434        -9.87010
   C        0.24492        -6.10771       -12.73767
   C       -0.75783        -6.23621       -13.72781
   C       -1.96142        -6.76301       -13.10867
   C       -3.15750        -7.03209       -13.70575
   C       -3.38042        -6.81933       -15.08339
   N       -3.57409        -6.64956       -16.20022
   C       -4.25796        -7.54153       -12.98320
   N       -5.15603        -7.95543       -12.40309
   C       -0.32526        -5.82873       -14.98569
   C        0.98932        -5.39629       -14.94747
   S        1.70853        -5.48886       -13.35455
   C        1.78252        -4.90227       -16.02153
   N        3.02172        -4.53434       -15.76318
   N        3.84138        -4.06313       -16.67702
   C        3.50266        -3.91634       -17.92326
   C        2.19867        -4.27128       -18.35040
   C        1.29152        -4.78895       -17.35909
   N        0.15198        -5.05103       -17.96449
   O        0.33406        -4.72146       -19.23931
   N        1.54808        -4.25250       -19.49864
   H       -1.32092        -9.54365         7.35743
   H       -4.78024       -10.01328         2.15777
   H       -4.63275        -9.22694        -4.00651
   H       -3.24999        -7.72955       -10.45377
   H       -0.90714        -5.83402       -15.89029
   H        4.24382        -3.52137       -18.59899
*
