# ORCA input file
# SCF done       -139.814931734670          0.000493671916
! CAM-B3LYP def2-SVP def2/J RIJCOSX Grid4 TightSCF
%maxcore 5000
%tddft
    Mode sTDDFT
    Ethresh 5.0
    maxcore 5000
end

%pal
  nprocs 6
  end
* xyz 0 1
   C        3.15614         3.90698        10.64479
   O        2.10535         3.58143        11.40635
   C        1.02975         4.20640        10.89220
   C        1.37341         4.93469         9.80212
   C        2.78097         4.75017         9.62116
   C        3.57195         5.34265         8.58652
   C        4.91101         5.17583         8.44276
   C        5.72147         5.76038         7.43873
   C        5.29890         6.58595         6.42974
   C        6.15687         7.15469         5.48709
   C        5.75177         8.00616         4.47777
   C        6.56304         8.64862         3.52372
   C        5.87773         9.46335         2.66123
   C        4.49381         9.49356         2.88952
   S        4.07363         8.46044         4.22981
   C        3.52857        10.22786         2.19826
   C        3.72404        11.15095         1.16586
   C        2.55945        11.72804         0.71435
   C        1.40781        11.27366         1.36339
   S        1.82910        10.09154         2.57889
   C        0.09238        11.67752         1.11880
   C       -1.01397        11.15895         1.73937
   C       -2.32654        11.57978         1.50739
   C       -3.49292        11.05121         2.06523
   C       -4.64788        11.67722         1.65239
   C       -4.42437        12.73081         0.76162
   S       -2.71926        12.90574         0.43788
   C       -5.36818        13.58597         0.18536
   C       -6.76064        13.55381         0.31089
   C       -7.40267        14.56132        -0.36637
   C       -6.54449        15.44004        -1.04906
   S       -4.88509        14.92737        -0.82297
   C       -6.94718        16.55460        -1.77123
   C       -6.16622        17.49748        -2.42296
   C       -6.62345        18.63865        -3.09908
   C       -5.50976        19.36527        -3.59253
   C       -4.30236        18.65404        -3.18957
   O       -3.12597        18.90108        -3.34071
   N       -4.78611        17.53433        -2.51988
   C       -6.00413        20.51051        -4.19241
   O       -7.36533        20.52549        -4.07804
   C       -7.81207        19.37905        -3.41458
   O       -8.98368        19.17692        -3.21702
   C       -5.38657        21.63671        -4.79014
   O       -6.10050        22.79295        -4.81783
   C       -5.30222        23.74788        -5.30247
   C       -4.07407        23.25369        -5.61032
   C       -4.10536        21.86306        -5.31122
   C       -3.04880        20.95033        -5.62595
   C       -3.20187        19.64058        -5.89326
   C       -2.11562        18.77707        -6.26287
   C       -2.27556        17.49498        -6.58657
   H        4.10412         3.48844        10.91760
   H        0.09173         4.05315        11.38784
   H        0.72803         5.53303         9.19258
   H        3.02683         5.96618         7.89258
   H        5.42345         4.54665         9.15819
   H        6.77927         5.53265         7.48465
   H        4.24964         6.83333         6.34207
   H        7.21491         6.93412         5.54819
   H        7.62824         8.50042         3.49941
   H        6.33948        10.03123         1.87375
   H        4.69965        11.38435         0.77958
   H        2.51453        12.46387        -0.06898
   H       -0.04285        12.45422         0.37638
   H       -0.88217        10.36136         2.46015
   H       -3.46809        10.22550         2.75441
   H       -5.63308        11.40163         1.98237
   H       -7.26611        12.80038         0.88758
   H       -8.46932        14.69586        -0.38217
   H       -8.01223        16.73549        -1.82257
   H       -4.16561        16.85525        -2.10761
   H       -5.71496        24.73499        -5.38103
   H       -3.24637        23.79248        -6.02386
   H       -2.06661        21.39638        -5.71539
   H       -4.18999        19.20286        -5.88190
   H       -1.12749        19.21752        -6.25820
   H       -3.24984        17.03418        -6.59199
   H       -1.44455        16.86424        -6.85086
*
