# ORCA input file
# SCF done       -165.084120834097          0.000749770680
! CAM-B3LYP def2-SVP def2/J RIJCOSX Grid4 TightSCF
%maxcore 5000
%tddft
    Mode sTDDFT
    Ethresh 5.0
    maxcore 5000
end

%pal
  nprocs 6
  end
* xyz 0 1
   C       -0.33685        -1.62890        -8.97353
   O       -1.57639        -2.11490        -9.06245
   C       -2.36869        -1.32375        -8.31435
   C       -1.65269        -0.32795        -7.73738
   C       -0.29891        -0.51247        -8.16431
   C        0.85991         0.26336        -7.85478
   C        0.87179         1.36103        -7.05653
   C        2.03371         2.11771        -6.79878
   C        2.04577         3.25021        -6.02728
   C        3.18222         4.03349        -5.81998
   C        3.20247         5.21462        -5.10494
   C        4.29386         6.08877        -4.93832
   C        3.99659         7.22752        -4.23843
   C        2.66152         7.29341        -3.80763
   S        1.78625         5.87317        -4.30216
   C        2.04309         8.33829        -3.11625
   C        2.57535         9.59599        -2.81446
   C        1.67991        10.43684        -2.19469
   C        0.42611         9.86276        -1.96464
   S        0.39091         8.22499        -2.56064
   C       -0.67698        10.48999        -1.37326
   C       -1.85455         9.87826        -1.03941
   C       -2.95956        10.55881        -0.50834
   C       -4.14168        10.01014        -0.00820
   C       -5.04749        10.95166         0.43611
   C       -4.60635        12.26533         0.26883
   S       -3.01376        12.30222        -0.42131
   C       -5.28089        13.46854         0.53998
   C       -6.47553        13.67110         1.23601
   C       -6.84254        14.99584         1.29045
   C       -5.94630        15.86121         0.64201
   S       -4.61904        14.97282        -0.02691
   C       -6.15348        17.23235         0.44517
   C       -5.31295        18.13865        -0.16170
   C       -3.94997        18.10161        -0.56188
   C       -3.66114        19.27561        -1.26784
   C       -4.84184        20.14318        -1.25283
   O       -5.03279        21.25791        -1.67546
   N       -5.77123        19.39158        -0.54956
   C       -2.30860        19.25446        -1.62048
   O       -1.74834        18.12677        -1.07584
   C       -2.69717        17.38903        -0.40799
   O       -2.40588        16.38139         0.19242
   C       -1.51438        20.17152        -2.29383
   C       -2.02950        21.13563        -3.14814
   C       -1.47634        22.39362        -3.54446
   C       -0.34848        23.04523        -3.07287
   N       -0.16917        24.45888        -3.25465
   O        0.95117        24.85302        -3.49806
   O       -1.15105        25.16984        -3.17199
   N        0.73039        22.42541        -2.38547
   O        1.31832        23.07642        -1.54538
   O        0.99959        21.27040        -2.67497
   C       -2.39720        22.97513        -4.51844
   C       -2.47607        24.07089        -5.32124
   S       -3.88146        24.01212        -6.31807
   C       -4.36595        22.48772        -5.67346
   C       -3.48621        22.06998        -4.73145
   C       -3.30662        20.88373        -3.89339
   O       -3.96320        19.86823        -3.89658
   H        0.43870        -2.13695        -9.51234
   H       -3.41061        -1.57230        -8.27384
   H       -2.02862         0.44019        -7.09492
   H        1.78369        -0.06878        -8.31095
   H       -0.04767         1.69614        -6.59683
   H        2.95808         1.78890        -7.25683
   H        1.12189         3.58006        -5.56804
   H        4.11366         3.72058        -6.27428
   H        5.26296         5.86486        -5.34763
   H        4.70587         8.00619        -4.02465
   H        3.58183         9.87334        -3.06962
   H        1.90253        11.44721        -1.90174
   H       -0.56567        11.54670        -1.16459
   H       -1.95379         8.80855        -1.17696
   H       -4.30960         8.94811         0.02745
   H       -6.01033        10.71458         0.85101
   H       -7.03064        12.86976         1.68914
   H       -7.72846        15.35759         1.78181
   H       -7.12635        17.60209         0.74706
   H       -6.72027        19.70313        -0.41182
   H       -0.44209        20.06942        -2.16435
   H       -1.83055        24.92104        -5.40726
   H       -5.25858        22.01008        -6.02357
*
