# ORCA input file
# SCF done       -126.107888193727          0.000853547788
! CAM-B3LYP def2-SVP def2/J RIJCOSX Grid4 TightSCF
%maxcore 5000
%tddft
    Mode sTDDFT
    Ethresh 5.0
    maxcore 5000
end

%pal
  nprocs 6
  end
* xyz 0 1
   C       -2.53964         1.88442        -3.20405
   O       -3.31565         1.12480        -3.97962
   C       -2.53864         0.63307        -4.96545
   C       -1.26402         1.07517        -4.84050
   C       -1.24430         1.90741        -3.67641
   C       -0.10149         2.59052        -3.14910
   C       -0.05507         3.25452        -1.97256
   C        1.14071         3.85199        -1.48812
   C        1.27039         4.40364        -0.25451
   C        2.47472         4.89816         0.31722
   S        2.38745         6.06745         1.59628
   C        4.11605         6.15564         1.64978
   N        4.71770         7.01344         2.57717
   O        5.93517         7.06647         2.59007
   O        3.97695         7.64790         3.30915
   C        4.72763         5.32372         0.74676
   C        3.80567         4.58295        -0.01079
   C        4.14141         3.55778        -0.95723
   C        5.27595         3.44946        -1.67493
   C        5.42291         2.45798        -2.68966
   C        6.52410         2.16649        -3.46611
   C        6.29032         1.18634        -4.43266
   C        4.99367         0.71163        -4.42911
   S        4.05934         1.49571        -3.18450
   C        4.33612        -0.20582        -5.29270
   S        2.63008        -0.00785        -5.54401
   C        2.63868        -1.32815        -6.66118
   N        1.42260        -1.67027        -7.26190
   O        1.40826        -2.60146        -8.04391
   O        0.45339        -0.99367        -6.95101
   C        3.87340        -1.89581        -6.82231
   C        4.86758        -1.27501        -6.03427
   C        6.21883        -1.72421        -5.91775
   C        6.80570        -2.65996        -6.70850
   C        8.13188        -3.09775        -6.52915
   C        8.74335        -4.04810        -7.30171
   C       10.07498        -4.52512        -7.16769
   C       10.42171        -5.48088        -8.06709
   C        9.38548        -5.82472        -8.97245
   S        7.94996        -4.87543        -8.63378
   C        9.42279        -6.75352        -9.98357
   C       10.52092        -7.58259       -10.35379
   C       10.26833        -8.40960       -11.39075
   C        8.94074        -8.30102       -11.92686
   S        8.04599        -7.07224       -11.01772
   C        8.40884        -8.98926       -12.94532
   H       -3.00408         2.36447        -2.36533
   H       -3.00207        -0.01075        -5.68530
   H       -0.44058         0.83233        -5.47919
   H        0.79597         2.52387        -3.75125
   H       -0.93060         3.29812        -1.33970
   H        1.97934         3.85162        -2.16974
   H        0.38525         4.50810         0.36067
   H        5.79620         5.23802         0.67049
   H        3.37620         2.80760        -1.10978
   H        6.09216         4.14805        -1.55816
   H        7.47154         2.65919        -3.33766
   H        7.02682         0.87962        -5.15292
   H        4.03753        -2.73881        -7.46788
   H        6.79640        -1.29732        -5.11035
   H        6.25831        -3.10030        -7.53070
   H        8.71068        -2.66085        -5.72562
   H       10.72887        -4.13970        -6.40503
   H       11.38816        -5.95053        -8.10806
   H       11.46067        -7.53175        -9.83304
   H       10.97304        -9.10571       -11.80991
   H        8.98823        -9.72784       -13.47076
   H        7.39637        -8.82997       -13.26811
*
