# ORCA input file
# SCF done       -148.594693983001          0.000330249671
! CAM-B3LYP def2-SVP def2/J RIJCOSX Grid4 TightSCF
%maxcore 5000
%tddft
    Mode sTDDFT
    Ethresh 5.0
    maxcore 5000
end

%pal
  nprocs 6
  end
* xyz 0 1
   C       -1.48776         5.52801         7.25681
   O       -2.59378         4.89416         7.66362
   C       -3.21371         4.42725         6.56475
   C       -2.51835         4.75284         5.44714
   C       -1.37071         5.48326         5.88652
   C       -0.34725         6.02725         5.04006
   C        0.72801         6.72048         5.46582
   C        1.72362         7.23867         4.58954
   C        2.79929         7.93377         5.02516
   C        3.82830         8.47076         4.20344
   S        5.13495         9.35090         4.98276
   C        5.88716         9.63909         3.45977
   C        5.14693         9.07323         2.41490
   C        3.98925         8.41679         2.83380
   S        5.87614         9.34175         0.85439
   C        7.17857        10.21813         1.61390
   C        8.31708        10.85711         1.12871
   C        9.06384        11.42640         2.14341
   S        8.33560        11.15900         3.72404
   C        7.03747        10.28802         3.00752
   C       10.27129        12.16098         2.09195
   C       10.98506        12.46328         0.97835
   C       12.18657        13.20815         1.02141
   S       12.86004        13.77809         2.51600
   C       14.21762        14.53067         1.71617
   C       14.12774        14.32215         0.33822
   C       12.99860        13.58398        -0.04349
   S       12.51005        13.16212        -1.67960
   C       13.76043        13.66888        -2.81404
   O       13.54763        13.48007        -3.98021
   C       15.06361        14.30465        -2.38661
   O       15.92988        14.48519        -3.19538
   S       15.38663        14.89467        -0.74578
   C       15.15221        15.29983         2.44888
   S       16.19394        16.43888         1.64281
   C       16.75358        17.01671         3.17560
   N       17.71365        18.04064         3.18706
   O       18.10587        18.43408         4.26939
   O       18.08230        18.46158         2.10572
   C       16.18986        16.37317         4.24227
   C       15.28271        15.36851         3.85242
   C       14.63813        14.48649         4.77442
   C       14.36716        14.77763         6.07379
   C       13.74385        13.86206         6.94188
   C       13.36282        14.13599         8.22839
   C       12.71815        13.24216         9.12501
   C       12.42830        13.77718        10.33841
   C       12.82388        15.13152        10.48052
   S       13.59107        15.69361         9.00652
   C       12.65429        15.94532        11.57468
   C       12.04474        15.60129        12.81599
   C       12.00736        16.60799        13.71490
   C       12.58795        17.83718        13.25307
   S       13.18317        17.61346        11.59977
   C       12.69008        18.99562        13.91751
   H       -0.86862         5.96473         8.01463
   H       -4.12798         3.88697         6.70996
   H       -2.77176         4.51453         4.43470
   H       -0.47681         5.84967         3.98019
   H        0.86306         6.90363         6.52284
   H        1.59234         7.05371         3.53244
   H        2.91203         8.11103         6.08709
   H        3.30350         7.92592         2.16966
   H        8.58630        10.90600         0.09046
   H       10.64685        12.50842         3.04708
   H       10.65598        12.14214         0.00099
   H       16.45097        16.59660         5.26040
   H       14.36201        13.50847         4.40590
   H       14.59137        15.75925         6.46931
   H       13.53192        12.87029         6.56402
   H       12.49056        12.23190         8.83363
   H       11.94068        13.24304        11.13394
   H       11.65542        14.61465        12.99387
   H       11.58739        16.53730        14.70251
   H       12.31425        19.08776        14.92125
   H       13.14554        19.86290        13.47594
*
