# ORCA input file
# SCF done       -130.818166869029          0.001008764495
! CAM-B3LYP def2-SVP def2/J RIJCOSX Grid4 TightSCF
%maxcore 5000
%tddft
    Mode sTDDFT
    Ethresh 5.0
    maxcore 5000
end

%pal
  nprocs 6
  end
* xyz 0 1
   C       14.24961        -1.62176        -4.37026
   O       14.76121        -0.89443        -5.36158
   C       13.73198        -0.34310        -6.02786
   C       12.54806        -0.71294        -5.47837
   C       12.87168        -1.56455        -4.37454
   C       11.99566        -2.21429        -3.44802
   C       10.64657        -2.14281        -3.47858
   C        9.81272        -2.75277        -2.50628
   C        8.46461        -2.59421        -2.48170
   C        7.60634        -3.12227        -1.48712
   S        8.22957        -4.15416        -0.24054
   C        6.66063        -4.23848         0.48565
   N        6.52017        -4.95950         1.67320
   O        5.40602        -5.06515         2.15278
   O        7.54197        -5.42500         2.15906
   C        5.70855        -3.51632        -0.18811
   C        6.22865        -2.86378        -1.31906
   C        5.50905        -1.94688        -2.15471
   C        4.27209        -1.45903        -1.93679
   C        3.68929        -0.41242        -2.72600
   O        2.33891        -0.37078        -2.80312
   C        2.00318         0.62459        -3.63677
   C        3.10891         1.25205        -4.11198
   C        4.23022         0.60966        -3.51135
   C        5.59176         1.03963        -3.67024
   C        6.56243         0.86567        -2.74601
   C        7.93685         1.15970        -2.93569
   C        8.87748         0.73765        -2.05043
   C       10.27535         0.87125        -2.20616
   S       10.94395         1.82667        -3.49468
   C       12.54144         1.43587        -2.96361
   N       13.62975         1.92154        -3.69055
   O       14.74660         1.61120        -3.31023
   O       13.38743         2.61313        -4.66698
   C       12.56332         0.61586        -1.86563
   C       11.27601         0.26918        -1.41701
   C       11.00360        -0.66030        -0.36089
   C       11.93933        -1.23827         0.42514
   C       11.64988        -2.24074         1.39042
   O       10.39449        -2.75088         1.49017
   C       10.42005        -3.70191         2.43865
   C       11.66195        -3.82751         2.97358
   C       12.48959        -2.88115         2.30537
   C       13.88161        -2.61716         2.51400
   C       14.66804        -3.26728         3.39034
   C       16.06241        -2.96799         3.56807
   C       16.85291        -3.61010         4.42755
   H       14.93257        -2.13548        -3.72288
   H       13.96544         0.29658        -6.85537
   H       11.57318        -0.41859        -5.80628
   H       12.47766        -2.78698        -2.66619
   H       10.15652        -1.57171        -4.25529
   H       10.29406        -3.34089        -1.73512
   H        8.00758        -1.99397        -3.25588
   H        4.68720        -3.46629         0.14143
   H        6.04835        -1.56927        -3.00926
   H        3.63463        -1.85418        -1.15860
   H        0.95773         0.78513        -3.81171
   H        3.14176         2.08618        -4.78222
   H        5.81532         1.56495        -4.59034
   H        6.30239         0.41031        -1.80001
   H        8.23866         1.66295        -3.84516
   H        8.54114         0.21830        -1.16360
   H       13.48582         0.27740        -1.43210
   H        9.97396        -0.94683        -0.21052
   H       12.97922        -0.96260         0.34103
   H        9.50821        -4.23475         2.63083
   H       11.95228        -4.50702         3.74699
   H       14.31417        -1.82828         1.91216
   H       14.26154        -4.05856         4.00426
   H       16.46515        -2.17160         2.95474
   H       16.47905        -4.40662         5.04964
   H       17.89417        -3.36274         4.53896
*
