# ORCA input file
# SCF done       -139.023509026183          0.000544514532
! CAM-B3LYP def2-SVP def2/J RIJCOSX Grid4 TightSCF
%maxcore 5000
%tddft
    Mode sTDDFT
    Ethresh 5.0
    maxcore 5000
end

%pal
  nprocs 6
  end
* xyz 0 1
   C        9.36406         8.49254         5.45109
   O        8.75377         9.41785         6.19511
   C        7.60533         9.73661         5.57014
   C        7.46474         9.02569         4.42438
   C        8.62337         8.19185         4.32945
   C        8.97766         7.24622         3.31415
   C        8.22839         6.95714         2.22784
   C        8.62558         6.01696         1.24105
   C        7.87899         5.70952         0.15050
   C        8.25995         4.77726        -0.84533
   S        9.80050         3.97957        -0.77232
   C        9.41752         3.09255        -2.20367
   N       10.34150         2.16592        -2.69514
   O        9.99434         1.48319        -3.64605
   O       11.42075         2.09443        -2.13653
   C        8.18165         3.38975        -2.71415
   C        7.49765         4.35686        -1.95388
   C        6.18196         4.83952        -2.24978
   C        5.33917         4.25486        -3.13113
   C        4.01398         4.73097        -3.37074
   C        3.08354         4.07148        -4.14315
   O        1.78591         4.52186        -4.28852
   C        1.49086         5.68887        -3.65116
   C        2.45570         6.37788        -2.86302
   C        1.96925         7.51750        -2.31212
   S        0.32085         7.76784        -2.75005
   C        0.29098         6.31917        -3.68426
   O        3.72334         5.90317        -2.70114
   C        3.34270         2.84430        -4.82019
   C        2.36809         2.09792        -5.39676
   C        2.53728         0.85967        -6.07414
   S        1.24881         0.42071        -7.16163
   C        2.14474        -0.95281        -7.69955
   N        1.58477        -1.78468        -8.67819
   O        0.47483        -1.48805        -9.08632
   O        2.24101        -2.73996        -9.05116
   C        3.35450        -1.07914        -7.06768
   C        3.58762        -0.07500        -6.10780
   C        4.76359        -0.16128        -5.27685
   C        4.90262         0.28536        -4.01334
   C        6.08346         0.14857        -3.23472
   C        6.32583         0.77037        -2.01031
   C        7.62773         0.46219        -1.47855
   N        8.04460         1.00517        -0.30866
   C        7.19989         1.79816         0.28071
   C        5.90981         2.11402        -0.24280
   C        5.00994         3.04630         0.49661
   N        5.48445         1.60985        -1.37255
   C        8.33942        -0.39099        -2.29330
   S        7.46315        -0.79936        -3.69244
   H       10.30539         8.11430         5.79820
   H        6.98301        10.47554         6.03471
   H        6.65035         9.08207         3.73350
   H        9.92535         6.74231         3.45354
   H        7.28011         7.45545         2.08033
   H        9.57941         5.52359         1.38057
   H        6.92377         6.19950         0.01963
   H        7.81065         2.93215        -3.61281
   H        5.83736         5.70599        -1.70720
   H        5.64058         3.36523        -3.65356
   H        2.47889         8.21753        -1.68402
   H       -0.59813         6.01942        -4.19789
   H        4.36418         2.51544        -4.87280
   H        1.35887         2.48790        -5.39924
   H        4.03305        -1.88742        -7.27498
   H        5.58226        -0.72024        -5.71403
   H        4.09699         0.79454        -3.50326
   H        7.52604         2.23869         1.21428
   H        4.63935         2.56290         1.40024
   H        4.16563         3.31501        -0.13147
   H        5.55313         3.94192         0.79250
   H        9.32347        -0.78372        -2.13704
*
