# ORCA input file
# SCF done       -147.297599005706          0.000880362178
! CAM-B3LYP def2-SVP def2/J RIJCOSX Grid4 TightSCF
%maxcore 5000
%tddft
    Mode sTDDFT
    Ethresh 5.0
    maxcore 5000
end

%pal
  nprocs 6
  end
* xyz 0 1
   C       -8.81151        21.09103         0.00710
   O      -10.09940        21.39965        -0.18748
   C      -10.19557        22.74197        -0.16845
   C       -8.98069        23.30758         0.03535
   C       -8.04886        22.22860         0.15534
   C       -6.64124        22.35948         0.37834
   C       -5.76663        21.33106         0.50124
   C       -4.38261        21.51191         0.71712
   C       -3.49085        20.48301         0.85154
   C       -2.12015        20.66668         1.05658
   C       -1.19918        19.65066         1.19648
   C        0.19134        19.78898         1.38710
   C        0.86492        18.60351         1.48543
   C        0.03972        17.46947         1.38106
   S       -1.62446        17.94629         1.15307
   C        0.42533        16.13415         1.43816
   C        1.72627        15.62555         1.58768
   C        1.78435        14.25822         1.59917
   C        0.53389        13.62782         1.46435
   S       -0.73148        14.82749         1.31729
   C        0.31617        12.26135         1.44911
   C       -0.89404        11.59839         1.33621
   S       -2.48279        12.33664         1.19042
   C       -3.36152        10.79420         1.13392
   C       -2.41278         9.73883         1.21439
   C       -1.08525        10.21292         1.32544
   O       -0.20168         9.20643         1.40106
   C       -0.94932         8.07120         1.33654
   N       -0.29036         6.83413         1.39011
   O       -0.99097         5.83420         1.32931
   O        0.92299         6.83200         1.49072
   C       -2.29696         8.33286         1.22137
   C       -4.73205        10.88240         1.04034
   C       -5.71616         9.89496         1.00442
   C       -7.09562        10.13938         0.92773
   C       -7.87533         9.00565         0.92122
   C       -7.13537         7.82229         0.98942
   S       -5.42949         8.17866         1.06356
   C       -7.56177         6.49214         1.00071
   C       -8.86088         5.96961         0.96331
   C       -8.89957         4.59833         0.98402
   C       -7.63333         3.98468         1.03549
   S       -6.38349         5.20709         1.06551
   C       -7.37315         2.62528         1.05152
   C       -6.12894         2.00398         1.08654
   S       -4.60389         2.89177         1.13196
   C       -3.72587         1.42556         1.14190
   C       -4.56736         0.30090         1.11335
   C       -5.90556         0.61299         1.08371
   C       -3.68567        -0.89519         1.12303
   O       -4.00299        -2.06071         1.11000
   C       -2.29397        -0.33435         1.15317
   C       -2.36363         1.03774         1.16652
   C       -1.15436        -1.20061         1.16165
   C        0.12140        -0.80577         1.18794
   H       -8.55453        20.05093         0.02000
   H      -11.17000        23.16553        -0.31044
   H       -8.75488        24.35233         0.09695
   H       -6.27201        23.37433         0.45130
   H       -6.12808        20.31408         0.43356
   H       -4.01635        22.52919         0.77785
   H       -3.85313        19.46376         0.79614
   H       -1.74085        21.67950         1.10667
   H        0.65676        20.75720         1.44406
   H        1.92714        18.52504         1.63130
   H        2.58546        16.26484         1.67950
   H        2.69178        13.68996         1.70179
   H        1.18757        11.62526         1.53943
   H       -3.04853         7.57666         1.15338
   H       -5.11726        11.89471         0.99709
   H       -7.48898        11.13953         0.88066
   H       -8.94903         9.01176         0.86774
   H       -9.73205         6.59849         0.92310
   H       -9.80548         4.01859         0.96124
   H       -8.23448         1.96962         1.02800
   H       -6.71039        -0.09938         1.05859
   H       -1.53838         1.72538         1.19082
   H       -1.39874        -2.25558         1.14321
   H        0.39557         0.23519         1.20593
   H        0.92895        -1.51652         1.19029
*
