# ORCA input file
# SCF done       -153.752955424857          0.000591038851
! CAM-B3LYP def2-SVP def2/J RIJCOSX Grid4 TightSCF
%maxcore 5000
%tddft
    Mode sTDDFT
    Ethresh 5.0
    maxcore 5000
end

%pal
  nprocs 6
  end
* xyz 0 1
   C       -1.15672        -0.68713         3.59186
   S       -0.32276        -1.94473         2.79958
   C       -1.65853        -3.05669         2.97620
   C       -2.72208        -2.41749         3.65269
   C       -2.42506        -1.06297         3.98919
   C       -3.39438        -0.28761         4.65316
   C       -4.60727        -0.82298         5.00665
   O       -5.43461         0.02495         5.67866
   C       -6.82941        -0.18647         5.72322
   C       -4.88742        -2.19756         4.70307
   O       -6.08783        -2.68996         5.13310
   C       -6.40210        -4.03588         4.87889
   C       -3.96010        -2.95666         4.02743
   C       -1.63673        -4.35511         2.46721
   C       -0.59735        -4.97500         1.80245
   C       -0.62449        -6.24636         1.18974
   C        0.53175        -6.58647         0.53989
   C        1.53452        -5.60806         0.62825
   S        0.97305        -4.24062         1.56422
   C        2.80660        -5.56930         0.06699
   C        3.42355        -6.41871        -0.86255
   C        4.65488        -5.97945        -1.28138
   C        5.07909        -4.77618        -0.68775
   S        3.85977        -4.22917         0.44833
   C        6.20016        -4.02453        -1.01042
   C        6.57826        -2.83880        -0.39209
   C        7.39597        -1.80324        -0.87839
   C        7.32469        -0.70878         0.00857
   C        6.58364        -1.13798         1.18154
   O        6.41661        -0.63400         2.27548
   N        6.10652        -2.39135         0.82896
   C        8.01735         0.35836        -0.57848
   O        8.59726        -0.10092        -1.74344
   C        8.21928        -1.41087        -1.99774
   O        8.57869        -1.99745        -2.98637
   C        8.14923         1.70383        -0.27856
   C        7.39127         2.43376         0.63157
   C        7.56513         3.80156         0.93740
   C        6.62674         4.30897         1.79432
   C        5.67433         3.35517         2.19807
   S        5.99883         1.80931         1.45841
   C        4.62298         3.47780         3.09928
   C        4.14867         4.62603         3.76451
   C        3.11162         4.37672         4.61474
   C        2.72825         3.01279         4.68240
   S        3.70773         2.06905         3.57290
   C        1.78010         2.49374         5.52949
   C        1.45000         1.14112         5.73505
   S        2.17198        -0.15243         4.80410
   C        1.34393        -1.31969         5.73934
   C        0.56101        -0.77889         6.72346
   C        0.59184         0.63146         6.71067
   C       -0.15808         1.49009         7.68070
   C        0.71430         1.84860         8.88714
   C       -0.20726        -1.62546         7.69403
   C       -1.60260        -1.97440         7.17674
   H       -0.68655         0.26719         3.71786
   H       -3.18960         0.74185         4.89883
   H       -7.24849         0.76000         6.06553
   H       -7.09811        -0.97787         6.42609
   H       -7.23395        -0.42540         4.73731
   H       -5.68239        -4.71284         5.34992
   H       -6.45109        -4.24312         3.80506
   H       -7.38547        -4.19287         5.31988
   H       -4.16995        -3.98689         3.79216
   H       -2.54379        -4.93475         2.57871
   H       -1.50101        -6.86957         1.22845
   H        0.67995        -7.51080         0.01057
   H        2.94514        -7.31033        -1.22702
   H        5.26105        -6.48819        -2.00994
   H        6.78471        -4.33158        -1.86566
   H        5.59264        -2.95776         1.48551
   H        8.86565         2.25228        -0.87537
   H        8.37997         4.37057         0.52538
   H        6.61475         5.32413         2.14897
   H        4.57990         5.59748         3.60141
   H        2.62408         5.12613         5.21374
   H        1.26108         3.21126         6.15174
   H        1.49130        -2.36016         5.52460
   H       -1.04715         0.95888         8.02199
   H       -0.49077         2.40611         7.18853
   H        1.04183         0.94749         9.40045
   H        0.15591         2.46411         9.58862
   H        1.59849         2.39582         8.56861
   H       -0.29327        -1.10452         8.64851
   H        0.34804        -2.55003         7.86606
   H       -2.18215        -1.07538         6.98201
   H       -2.13413        -2.57808         7.90887
   H       -1.53289        -2.53759         6.24949
*
