# ORCA input file
# SCF done       -191.655752059969          0.000916601131
! CAM-B3LYP def2-SVP def2/J RIJCOSX Grid4 TightSCF
%maxcore 5000
%tddft
    Mode sTDDFT
    Ethresh 5.0
    maxcore 5000
end

%pal
  nprocs 6
  end
* xyz 0 1
   C        6.00877       -19.52991       -23.45282
   C        5.50043       -19.12938       -22.25480
   C        6.51079       -19.03139       -21.24120
   C        7.74944       -19.36056       -21.67841
   S        7.70787       -19.79394       -23.34994
   C        5.91029       -18.58333       -19.97500
   O        6.49157       -18.36324       -18.93517
   C        4.47634       -18.38795       -20.29752
   C        4.21822       -18.82515       -21.64428
   C        2.96328       -19.04968       -22.17274
   N        2.71340       -19.27513       -23.55277
   O        1.72646       -19.91459       -23.85392
   O        3.51468       -18.82443       -24.35370
   N        1.79154       -19.16224       -21.33595
   O        0.77777       -18.62322       -21.71718
   O        1.90599       -19.78954       -20.30209
   C        3.55693       -17.67652       -19.54366
   C        3.58202       -17.34333       -18.19492
   S        2.35555       -16.19233       -17.62167
   C        2.92207       -16.34022       -16.02364
   C        3.99855       -17.25516       -15.92893
   C        4.36717       -17.81185       -17.12946
   C        4.39389       -17.32583       -14.51232
   O        5.25835       -18.00417       -14.01163
   C        3.46313       -16.35327       -13.81609
   C        2.61068       -15.80253       -14.76513
   C        3.47086       -16.05636       -12.44834
   C        4.31413       -16.64850       -11.53917
   C        4.35567       -16.36159       -10.17130
   S        5.47193       -17.26879        -9.14709
   C        4.95949       -16.39740        -7.76818
   C        3.97230       -15.44078        -8.08886
   C        3.63233       -15.42186        -9.42295
   C        3.61994       -14.74465        -6.83638
   O        2.82674       -13.85148        -6.66210
   C        4.48212       -15.40144        -5.78551
   C        5.25973       -16.37666        -6.39656
   C        4.41376       -14.99758        -4.44756
   C        5.10849       -15.58005        -3.41693
   C        5.03142       -15.14005        -2.08114
   C        5.67722       -15.75988        -1.01198
   O        5.59281       -15.27546         0.27094
   C        4.82651       -14.16436         0.44797
   C        4.15084       -13.54112        -0.63914
   C        3.43616       -12.45261        -0.25969
   S        3.58025       -12.17345         1.43512
   C        4.61304       -13.53724         1.63251
   O        4.24592       -14.01894        -1.90798
   C        6.45344       -16.94127        -1.12937
   C        7.04834       -17.55191        -0.06856
   C        7.81092       -18.76041        -0.10164
   C        8.27850       -19.27434         1.09651
   C        9.00839       -20.47461         1.12901
   C        9.56139       -21.19939         2.18134
   C        9.57506       -20.91371         3.64489
   C       10.72788       -19.94744         4.00106
   N       10.49876       -18.63179         3.43287
   C        8.23362       -20.39206         4.18850
   N        8.06141       -20.86391         5.55461
   C       10.20454       -22.35226         1.59497
   C       10.88147       -23.37194         2.15798
   C       11.48473       -24.45663         1.33793
   C       11.21623       -24.35113        -0.12934
   C       10.53376       -23.33047        -0.67815
   C       10.00928       -22.29992         0.14094
   C        9.28233       -21.16120        -0.13015
   C        8.80634       -20.60935        -1.34301
   C        8.09493       -19.45668        -1.32583
   C       12.98367       -24.45350         1.56895
   C       13.65322       -25.44427         2.12360
   H        5.51470       -19.65047       -24.39568
   H        8.67308       -19.38495       -21.13603
   H        2.70226       -17.27793       -20.08161
   H        5.16105       -18.52193       -17.26490
   H        1.83661       -15.08391       -14.56679
   H        2.75756       -15.31429       -12.11137
   H        5.00297       -17.39984       -11.89920
   H        2.90253       -14.76395        -9.85759
   H        5.98052       -17.01224        -5.91668
   H        3.74839       -14.17176        -4.23581
   H        5.74742       -16.41841        -3.63416
   H        2.84167       -11.80778        -0.87193
   H        4.99944       -13.79661         2.59570
   H        6.54309       -17.36469        -2.11380
   H        6.92562       -17.10060         0.90689
   H        8.08070       -18.74333         2.01399
   H        9.77364       -21.85324         4.17071
   H       11.67590       -20.40750         3.67229
   H       10.77010       -19.83719         5.08828
   H       10.54031       -18.67736         2.41992
   H       11.21194       -17.98277         3.74548
   H        7.41660       -20.80761         3.59329
   H        8.21506       -19.29672         4.10372
   H        8.74048       -20.42165         6.16525
   H        7.13902       -20.62110         5.89823
   H       11.03937       -23.43682         3.22612
   H       11.10100       -25.41909         1.70489
   H       11.62783       -25.14195        -0.73804
   H       10.36931       -23.28656        -1.74500
   H        9.01675       -21.11696        -2.27298
   H        7.73625       -19.04130        -2.25390
   H       13.48453       -23.55798         1.22842
   H       13.16824       -26.34407         2.46541
   H       14.72062       -25.39871         2.25708
*
