# ORCA input file
# SCF done       -169.978217070995          0.000303317659
! CAM-B3LYP def2-SVP def2/J RIJCOSX Grid4 TightSCF
%maxcore 5000
%tddft
    Mode sTDDFT
    Ethresh 5.0
    maxcore 5000
end

%pal
  nprocs 6
  end
* xyz 0 1
   C        8.52978         0.34313        -2.68238
   C        9.39558        -0.34921        -1.89025
   C        9.23415        -0.02927        -0.50501
   C        8.25761         0.87895        -0.26701
   S        7.50852         1.36400        -1.74566
   C       10.25637        -0.73690         0.26986
   O       10.46200        -0.66985         1.46786
   C       11.05572        -1.48932        -0.72011
   C       10.52012        -1.26716        -2.04427
   C       10.84413        -1.84305        -3.25095
   N        9.90518        -1.79761        -4.35669
   O        8.74859        -2.06131        -4.11089
   O       10.34055        -1.48902        -5.44014
   N       12.04195        -2.53215        -3.58784
   O       11.96397        -3.41220        -4.42037
   O       13.07095        -2.20198        -3.02319
   C       12.16876        -2.22812        -0.36735
   C       12.50194        -2.75787         0.88102
   S       14.17201        -3.30527         1.08898
   C       13.86018        -3.92123         2.65396
   C       12.55576        -3.75788         3.02170
   C       11.77941        -3.08775         2.02708
   S       10.10977        -2.93697         2.43596
   C       10.39234        -3.76290         3.95211
   C       11.75545        -4.13371         4.15153
   C       11.95367        -4.76061         5.34520
   S       10.48945        -4.90613         6.23643
   C        9.55172        -4.09771         4.99014
   C        8.16197        -3.85503         5.10583
   C        7.42943        -4.23996         6.18020
   C        6.03756        -3.99103         6.33302
   C        5.29603        -4.39961         7.42229
   O        3.95281        -4.11618         7.55636
   C        3.39681        -3.40881         6.53328
   C        4.15782        -2.99758         5.40104
   C        3.42123        -2.30903         4.49457
   S        1.78320        -2.15166         5.01025
   C        2.09854        -3.02386         6.46349
   O        5.48348        -3.28260         5.28157
   C        5.83960        -5.15286         8.49982
   C        5.14976        -5.54691         9.59877
   C        5.73890        -6.31014        10.63898
   S        4.80571        -6.75624        12.05540
   C        6.12887        -7.59549        12.76443
   C        7.23813        -7.54918        11.97287
   C        7.01449        -6.81790        10.76710
   S        8.41798        -6.74632         9.72488
   C        9.32673        -7.69777        10.88012
   C        8.58010        -8.05882        12.04029
   C        9.31884        -8.79803        12.91379
   S       10.92116        -9.05834        12.32775
   C       10.62073        -8.15274        10.85418
   C       11.58542        -7.95938         9.83294
   C       12.84300        -8.45602         9.85586
   C       13.80578        -8.27063         8.83443
   S       13.43830        -7.33968         7.40001
   C       15.01104        -7.61007         6.77093
   C       15.78158        -8.36641         7.59145
   C       15.11006        -8.75721         8.78052
   N       15.65753        -9.56708         9.73404
   C       17.07822        -9.82482         9.81111
   C       17.37217       -10.74407        10.98616
   H        8.40259         0.34127        -3.74614
   H        7.93260         1.29418         0.66554
   H       12.91323        -2.40763        -1.13568
   H       14.64977        -4.37343         3.22093
   H       12.86056        -5.14950         5.76069
   H        7.69794        -3.33175         4.28186
   H        7.93628        -4.76197         6.97533
   H        3.74281        -1.89153         3.56375
   H        1.31849        -3.20113         7.17362
   H        6.87560        -5.42699         8.41782
   H        4.10928        -5.28176         9.71337
   H        6.00911        -8.07064        13.71694
   H        9.03115        -9.20790        13.86027
   H       11.25136        -7.37180         8.98649
   H       13.14423        -9.04767        10.71232
   H       15.27826        -7.19368         5.81987
   H       16.79502        -8.63717         7.36018
   H       15.17318        -9.59228        10.61823
   H       17.64699        -8.88826         9.91891
   H       17.39318       -10.30798         8.88068
   H       17.09114       -10.26935        11.92426
   H       18.43320       -10.97445        11.02273
   H       16.81740       -11.67363        10.88498
*
