# ORCA input file
# SCF done       -154.426515309166          0.000824889151
! CAM-B3LYP def2-SVP def2/J RIJCOSX Grid4 TightSCF
%maxcore 5000
%tddft
    Mode sTDDFT
    Ethresh 5.0
    maxcore 5000
end

%pal
  nprocs 6
  end
* xyz 0 1
   C        5.06811       -16.23580        -2.57629
   C        5.45962       -15.18633        -3.30922
   C        6.65271       -15.05226        -4.09515
   C        6.76478       -13.87246        -4.74492
   C        5.68492       -12.97462        -4.52060
   S        4.50112       -13.70378        -3.45143
   C        5.53220       -11.68952        -4.98199
   C        6.41204       -10.90750        -5.76755
   C        6.02134        -9.61037        -5.90341
   C        4.82988        -9.27372        -5.20963
   S        4.13864       -10.73285        -4.51114
   C        4.28199        -8.01345        -5.12478
   C        3.24821        -7.56161        -4.27112
   C        2.98107        -8.06242        -3.00673
   O        1.84576        -7.72767        -2.29379
   C        1.09681        -6.73347        -2.84352
   C        1.45309        -6.10663        -4.07521
   C        0.59406        -5.11852        -4.42922
   S       -0.66634        -4.93706        -3.26669
   C       -0.02550        -6.20717        -2.29269
   O        2.52964        -6.50412        -4.80722
   C        3.89204        -8.92680        -2.35697
   C        3.59405        -9.81775        -1.36854
   C        4.54598       -10.78149        -0.95269
   C        4.28294       -11.84306        -0.10041
   O        5.22967       -12.81451         0.17116
   C        6.35861       -12.77194        -0.58322
   C        6.63430       -11.67617        -1.44919
   C        7.80446       -11.81517        -2.11978
   S        8.59104       -13.29063        -1.69370
   C        7.32543       -13.72071        -0.60545
   O        5.78023       -10.62604        -1.56067
   C        3.04226       -12.07610         0.53468
   C        2.83732       -13.15706         1.34794
   C        1.60841       -13.43936         1.97983
   C        1.34465       -14.58538         2.72135
   O        0.17036       -14.71222         3.45807
   C       -0.73302       -13.70500         3.34396
   C       -0.48922       -12.57255         2.51583
   C       -1.51499       -11.68510         2.51968
   S       -2.79844       -12.22085         3.53942
   C       -1.93909       -13.65560         3.96227
   O        0.67203       -12.43023         1.82644
   C        2.13161       -15.74448         2.89394
   C        3.23061       -16.21194         2.21996
   C        3.86318       -17.40698         2.57485
   C        4.99183       -17.90966         1.96713
   C        5.65259       -19.12057         2.27631
   C        6.76347       -19.36605         1.52719
   C        7.05394       -18.35529         0.58221
   S        5.84806       -17.08327         0.67409
   C        8.11317       -18.29960        -0.29654
   C        9.15476       -19.25150        -0.46157
   C       10.07846       -18.91633        -1.39219
   C        9.83991       -17.65985        -2.03932
   S        8.35317       -16.95077        -1.39210
   C       10.57545       -17.05466        -2.98283
   H        5.67605       -17.12037        -2.52047
   H        4.15007       -16.22597        -2.01843
   H        7.37579       -15.84724        -4.12632
   H        7.59326       -13.60003        -5.37452
   H        7.31306       -11.31624        -6.18903
   H        6.58047        -8.86328        -6.43950
   H        4.62789        -7.28154        -5.84396
   H        0.62897        -4.49447        -5.29729
   H       -0.50642        -6.48957        -1.37996
   H        4.90015        -8.90668        -2.74030
   H        2.59697        -9.86075        -0.96736
   H        8.24564       -11.14140        -2.82379
   H        7.36393       -14.63930        -0.06031
   H        2.23399       -11.39158         0.34761
   H        3.66436       -13.81246         1.54729
   H       -1.58963       -10.75920         1.98942
   H       -2.36831       -14.36972         4.63290
   H        1.73411       -16.38640         3.67241
   H        3.63645       -15.68993         1.36694
   H        3.45314       -17.98424         3.39381
   H        5.28244       -19.77641         3.04489
   H        7.38102       -20.23997         1.63119
   H        9.18434       -20.15524         0.12101
   H       10.93701       -19.51158        -1.64803
   H       11.47475       -17.51128        -3.35631
   H       10.29839       -16.09575        -3.38161
*
