# ORCA input file
# SCF done       -179.360510393794          0.000438656434
! CAM-B3LYP def2-SVP def2/J RIJCOSX Grid4 TightSCF
%maxcore 5000
%tddft
    Mode sTDDFT
    Ethresh 5.0
    maxcore 5000
end

%pal
  nprocs 6
  end
* xyz 0 1
   C        2.14937         2.99444        -2.73152
   O        1.18245         3.07670        -3.67082
   C        0.02572         2.98205        -2.97014
   C        0.37554         2.84246        -1.59719
   N        1.75255         2.85920        -1.52193
   C       -0.57746         2.71889        -0.60251
   C       -1.88927         2.74310        -1.05235
   C       -2.21364         2.88764        -2.43410
   C       -1.27389         3.01007        -3.43835
   O       -3.55995         2.87834        -2.53486
   C       -4.00645         2.73065        -1.25103
   N       -3.06458         2.64762        -0.36078
   C       -5.41662         2.68996        -1.02005
   C       -5.94688         2.51248         0.20341
   C       -7.35877         2.48724         0.42504
   O       -7.82103         2.26860         1.69459
   C       -9.16422         2.30925         1.58688
   C       -9.47366         2.56027         0.21468
   N       -8.29053         2.65965        -0.46248
   C      -10.77744         2.67002        -0.23799
   C      -11.74522         2.51478         0.74287
   C      -11.40927         2.25762         2.10742
   C      -10.11482         2.14756         2.57574
   O      -12.56487         2.15604         2.79618
   C      -13.54487         2.35050         1.86352
   N      -13.10636         2.56323         0.65752
   C      -14.92063         2.31091         2.23252
   C      -15.34155         2.05018         3.49126
   C      -16.69872         1.99238         3.90369
   C      -17.18641         1.68957         5.16326
   C      -18.61287         1.73771         5.12762
   C      -19.01692         2.09445         3.76755
   O      -20.09129         2.25652         3.24946
   N      -17.79127         2.22713         3.09947
   C      -19.05335         1.41903         6.38804
   O      -18.00422         1.17624         7.20991
   C      -16.79926         1.32789         6.50954
   O      -15.73407         1.16411         7.03225
   C      -20.38560         1.32101         6.88527
   O      -21.40848         1.60532         6.02899
   C      -22.52447         1.42947         6.76217
   C      -22.11685         1.03116         8.07375
   N      -20.75470         0.98329         8.08447
   C      -23.03217         0.76377         9.08214
   C      -24.35746         0.91661         8.71341
   C      -24.73824         1.32130         7.39533
   C      -23.84230         1.58907         6.37942
   O      -26.08420         1.37658         7.36600
   C      -26.48047         1.01256         8.62551
   N      -25.50424         0.73821         9.43607
   C      -27.87953         0.96676         8.91200
   C      -28.36083         0.58434        10.10882
   C      -29.76156         0.52902        10.38763
   O      -30.16896         0.09334        11.61791
   C      -31.51772         0.14457        11.57366
   C      -31.88348         0.62651        10.28166
   N      -30.73005         0.84873         9.58300
   C      -33.20744         0.79883         9.90691
   C      -34.13233         0.46434        10.88064
   C      -33.73999        -0.01837        12.16417
   C      -32.42760        -0.19436        12.55602
   O      -34.86879        -0.25104        12.86838
   C      -35.88662         0.08701        12.01907
   N      -35.50173         0.50660        10.85686
   C      -37.24162        -0.05358        12.48778
   C      -38.29456         0.25388        11.73761
   H        3.17057         3.04684        -3.05529
   H       -0.32266         2.61303         0.43668
   H       -1.52796         3.11669        -4.47853
   H       -6.05485         2.81018        -1.88255
   H       -5.31242         2.38369         1.06708
   H      -11.02103         2.86155        -1.26748
   H       -9.87233         1.95598         3.60640
   H      -15.59816         2.49949         1.41351
   H      -14.61746         1.85814         4.27100
   H      -17.73942         2.47453         2.12375
   H      -22.73312         0.46178        10.06975
   H      -24.13538         1.89051         5.38909
   H      -28.55037         1.24942         8.11492
   H      -27.69154         0.29641        10.90545
   H      -33.49225         1.16252         8.93596
   H      -32.14237        -0.55925        13.52747
   H      -37.33760        -0.42822        13.49696
   H      -38.16052         0.62554        10.73656
   H      -39.30015         0.14339        12.10323
*
