# ORCA input file
# SCF done       -123.997204364449          0.000995382614
! CAM-B3LYP def2-SVP def2/J RIJCOSX Grid4 TightSCF
%maxcore 5000
%tddft
    Mode sTDDFT
    Ethresh 5.0
    maxcore 5000
end

%pal
  nprocs 6
  end
* xyz 0 1
   C        3.36804        -0.03581        -0.09066
   N        2.53684        -1.02704        -0.11114
   C        1.28861        -0.46381        -0.10950
   C        1.37697         1.00205        -0.08792
   C        0.03428         1.60899        -0.08431
   O       -0.27340         2.77598        -0.06811
   C       -0.84576         0.41581        -0.10603
   C       -0.02876        -0.82390        -0.12087
   N       -0.83057        -1.92209        -0.14038
   C       -2.04931        -1.45572        -0.13860
   C       -2.13263        -0.00035        -0.11708
   C        2.71951         1.29033        -0.07617
   C        3.39273         2.49307        -0.05316
   C        4.01741         3.54224        -0.03464
   C        4.72408         4.67579        -0.01126
   C        5.38924         5.69975         0.01907
   C        6.16681         6.83867         0.06390
   N        7.54126         6.79632         0.13029
   C        8.34077         5.59650         0.09806
   C        8.41207         5.00365        -1.30640
   C        8.09681         8.08108         0.18806
   O        9.29199         8.29743         0.25230
   C        6.95224         8.96752         0.15988
   C        5.78126         8.17468         0.07735
   C        4.63265         9.05801         0.06063
   O        3.44298         8.85546        -0.00020
   N        5.20122        10.35006         0.14669
   C        4.36923        11.52828         0.11048
   C        4.35731        12.17304        -1.27339
   C        6.57245        10.31096         0.20657
   C        7.39477        11.45764         0.33059
   C        8.75068        11.37252         0.41500
   C        9.57153        12.46882         0.57902
   C       10.33530        13.41011         0.74048
   C       11.17642        14.42869         0.93841
   C       11.96157        15.34628         1.12952
   C       12.83382        16.39393         1.35098
   N       14.04706        16.22561         1.87145
   C       14.58034        17.45399         1.93271
   C       13.63492        18.47647         1.40948
   C       14.24037        19.82619         1.48418
   O       13.76299        20.88302         1.14563
   C       15.56173        19.54690         2.07233
   C       15.72582        18.09643         2.32851
   N       16.94080        17.84297         2.87135
   C       17.52530        19.01226         2.96472
   C       16.72242        20.11831         2.48420
   C       12.52713        17.79925         1.04360
   H        4.43227        -0.19682        -0.08723
   H       -2.88996        -2.12777        -0.15189
   H       -3.04028         0.56997        -0.11180
   H        7.91817         4.86818         0.79734
   H        9.34018         5.88463         0.43489
   H        7.41984         4.72677        -1.65666
   H        9.03878         4.11662        -1.29800
   H        8.84049         5.72531        -1.99799
   H        4.70545        12.23946         0.87031
   H        3.36039        11.19167         0.36557
   H        5.35735        12.48042        -1.57211
   H        3.71072        13.04596        -1.26611
   H        3.97793        11.46691        -2.00789
   H        6.91794        12.42667         0.38137
   H        9.24418        10.40685         0.36789
   H       18.51886        19.09051         3.37143
   H       17.02032        21.14801         2.47528
   H       11.60599        18.14589         0.61822
*
