# ORCA input file
# SCF done       -168.405828577045          0.000850905130
! CAM-B3LYP def2-SVP def2/J RIJCOSX Grid4 TightSCF
%maxcore 5000
%tddft
    Mode sTDDFT
    Ethresh 5.0
    maxcore 5000
end

%pal
  nprocs 6
  end
* xyz 0 1
   C       -2.28380        -1.09074        -3.54584
   C       -2.17577        -0.94604        -2.16580
   C       -1.73471        -2.02803        -1.31558
   N       -1.56333        -1.81768        -0.00185
   C       -1.87157        -0.65456         0.50198
   C       -2.40016         0.39902        -0.33011
   N       -2.51209         0.24359        -1.61929
   C       -2.77868         1.63328         0.25967
   N       -3.07561         2.61187         0.77416
   C       -1.66093        -0.41286         1.88349
   N       -1.50957        -0.16677         2.99164
   C       -1.44688        -3.30190        -1.85480
   C       -1.54023        -3.42859        -3.25049
   C       -1.95466        -2.32384        -4.09048
   N       -1.98037        -2.67667        -5.38433
   S       -1.53705        -4.20314        -5.51728
   N       -1.28757        -4.52628        -3.96902
   C       -1.09394        -4.41565        -1.03363
   S       -0.49028        -5.92519        -1.70423
   C       -0.41181        -6.47403        -0.03965
   N       -0.82346        -5.56271         0.81009
   N       -1.19227        -4.44841         0.26709
   C        0.04245        -7.76820         0.32291
   C        0.07123        -8.16969         1.61965
   C        0.51986        -9.45165         2.01958
   N        0.55245        -9.87362         3.32802
   C        0.20349        -9.09488         4.49250
   C        1.31088        -8.11603         4.87371
   C        1.03311       -11.18769         3.44664
   O        1.14292       -11.77121         4.50683
   C        1.30914       -11.59230         2.08456
   C        0.98367       -10.50790         1.23449
   C        1.26270       -10.91137        -0.12721
   O        1.14793       -10.33095        -1.18828
   N        1.75137       -12.22319        -0.00755
   C        2.10542       -13.00036        -1.17123
   C        1.00547       -13.98859        -1.55002
   C        1.78066       -12.64590         1.30058
   C        2.23411       -13.92554         1.70368
   C        2.22882       -14.33154         2.99907
   C        2.68859       -15.61833         3.37828
   S        2.66839       -16.17384         5.04561
   C        3.35895       -17.66812         4.41832
   N        3.53096       -17.62890         3.12293
   N        3.16740       -16.52098         2.55928
   C        3.67593       -18.76441         5.26291
   C        4.24569       -19.89774         4.78977
   C        4.59112       -21.03444         5.58096
   C        5.23011       -22.14086         4.96547
   C        5.61080       -23.31572         5.71211
   N        6.22882       -24.34491         5.08965
   C        6.46921       -24.25238         3.81220
   C        6.08259       -23.08278         3.06435
   N        5.48550       -22.07698         3.64783
   C        6.35334       -23.02051         1.67442
   N        6.58942       -23.01111         0.55367
   C        7.12307       -25.32180         3.14574
   N        7.64899       -26.16230         2.57311
   C        5.36063       -23.42216         7.07538
   C        4.73166       -22.35221         7.69732
   C        4.34718       -21.15985         6.96531
   N        3.76108       -20.26779         7.77071
   S        3.70268       -20.85776         9.25924
   N        4.40556       -22.26420         8.99461
   H       -2.62322        -0.27072        -4.15541
   H        0.36857        -8.42426        -0.47196
   H       -0.26808        -7.47684         2.37558
   H        0.05404        -9.81429         5.30242
   H       -0.73589        -8.56663         4.31030
   H        2.22903        -8.65779         5.08763
   H        1.01968        -7.56172         5.76130
   H        1.50245        -7.41033         4.06885
   H        3.04933       -13.52084        -0.98958
   H        2.24822       -12.28077        -1.98217
   H        0.82124       -14.69530        -0.74419
   H        1.29925       -14.54081        -2.43812
   H        0.08241       -13.45447        -1.76206
   H        2.60144       -14.60983         0.95312
   H        1.86886       -13.68089         3.78392
   H        3.44682       -18.66000         6.31298
   H        4.47393       -19.97090         3.73572
   H        5.65028       -24.30515         7.61864
*
