# ORCA input file
# SCF done       -160.033755335495          0.000321354454
! CAM-B3LYP def2-SVP def2/J RIJCOSX Grid4 TightSCF
%maxcore 5000
%tddft
    Mode sTDDFT
    Ethresh 5.0
    maxcore 5000
end

%pal
  nprocs 6
  end
* xyz 0 1
   C       -1.39515        -0.43593         0.49163
   C       -1.58617        -1.26780        -0.57742
   C       -2.82797        -1.82067        -0.95269
   N       -3.81589        -2.23960        -1.36010
   C       -0.58068        -1.57636        -1.51977
   N        0.20087        -1.86606        -2.30831
   C       -0.21048         0.38478         0.73743
   C       -0.53031         1.38169         1.68013
   C        0.40405         2.32643         2.06178
   C        1.66941         2.26599         1.50109
   C        2.00904         1.27711         0.57863
   C        1.06064         0.33029         0.19386
   C        3.39271         1.21211         0.01670
   C       -1.91530         1.20191         2.14360
   O       -2.54679         1.87719         2.92311
   C       -2.37990        -0.05407         1.48391
   C       -3.46413        -0.71236         1.96983
   C       -3.83255        -2.00698         1.66926
   C       -4.12055        -3.17355         1.44922
   C       -4.40727        -4.44195         1.13837
   C       -4.65055        -5.59220         0.81268
   C       -4.88831        -6.89630         0.42011
   N       -6.08342        -7.31897        -0.11013
   C       -7.21844        -6.47088        -0.37956
   C       -6.98426        -5.58207        -1.59786
   C       -6.04705        -8.68259        -0.44305
   O       -6.98804        -9.27857        -0.93128
   C       -4.71834        -9.10917        -0.06063
   C       -4.03013        -7.98375         0.46851
   C       -2.70078        -8.39972         0.85586
   O       -1.76634        -7.80749         1.34854
   N       -2.66700        -9.76936         0.51786
   C       -1.50088       -10.57115         0.79557
   C       -1.67374       -11.40871         2.06058
   C       -3.85667       -10.20251        -0.02256
   C       -4.07959       -11.53201        -0.46509
   C       -5.26082       -11.93193        -1.00009
   C       -5.52834       -13.24368        -1.47576
   S       -7.07664       -13.58637        -2.17768
   C       -6.61772       -15.22154        -2.48617
   C       -7.46428       -16.21071        -3.08873
   O       -7.11293       -17.35667        -3.27733
   C       -5.32248       -15.48519        -2.04471
   C       -4.71381       -14.36616        -1.48056
   C       -4.73937       -16.81278        -2.20739
   C       -4.71932       -17.71610        -1.21279
   C       -4.23188       -19.08980        -1.23996
   C       -3.41225       -19.63639        -2.18407
   C       -2.88144       -18.92228        -3.28116
   N       -2.39365       -18.38774        -4.17161
   C       -2.94967       -20.97027        -2.15970
   N       -2.53951       -22.04137        -2.18966
   C       -4.73438       -19.74475        -0.03835
   C       -5.41325       -18.80069         0.75675
   C       -5.40288       -17.48833         0.09470
   O       -5.86336       -16.44322         0.49720
   C       -5.98640       -19.16447         1.96149
   C       -5.88111       -20.48331         2.37099
   C       -5.21846       -21.43406         1.59506
   C       -4.64080       -21.06094         0.38292
   C       -5.10442       -22.84790         2.06720
   H        0.14131         3.08843         2.77926
   H        2.41320         2.99637         1.78401
   H        1.33318        -0.43622        -0.51406
   H        3.83408         2.20345        -0.05001
   H        3.39022         0.75351        -0.96883
   H        4.02433         0.60625         0.66744
   H       -4.05198        -0.19265         2.72141
   H       -7.42237        -5.85730         0.50373
   H       -8.06405        -7.14061        -0.55838
   H       -6.13864        -4.91713        -1.43499
   H       -7.86811        -4.97940        -1.78604
   H       -6.78707        -6.19355        -2.47523
   H       -0.67771        -9.86442         0.93466
   H       -1.27641       -11.20588        -0.06650
   H       -1.84590       -10.75747         2.91395
   H       -0.77388       -11.98959         2.24346
   H       -2.51839       -12.08829         1.96882
   H       -3.26303       -12.23231        -0.37285
   H       -6.07005       -11.21828        -1.08660
   H       -8.46883       -15.85564        -3.37734
   H       -3.71549       -14.38017        -1.08338
   H       -4.35592       -17.04787        -3.19173
   H       -6.50394       -18.42860         2.55757
   H       -6.32333       -20.78773         3.30836
   H       -4.13597       -21.80391        -0.21385
   H       -5.94499       -23.11754         2.70170
   H       -4.19035       -22.96689         2.64998
   H       -5.05490       -23.53494         1.22627
*
