# ORCA input file
# SCF done       -175.547397920525          0.000514492504
! CAM-B3LYP def2-SVP def2/J RIJCOSX Grid4 TightSCF
%maxcore 5000
%tddft
    Mode sTDDFT
    Ethresh 5.0
    maxcore 5000
end

%pal
  nprocs 6
  end
* xyz 0 1
   C        0.14249         0.61065         0.00151
   C       -1.16399         0.98762         0.03962
   S       -2.20883        -0.38490         0.08773
   C       -0.85726        -1.49455         0.05474
  Cl       -1.09406        -3.17188         0.07955
   C        0.32053        -0.81188         0.01037
   C        1.75277        -1.13270        -0.03171
   O        2.28495        -2.21829        -0.04052
   C        2.43257         0.19636        -0.06574
   C        1.44116         1.25492        -0.04678
   C        1.64403         2.60988        -0.06794
   C        0.56332         3.51597        -0.04290
   N       -0.30513         4.26537        -0.02320
   C        2.90203         3.24156        -0.11569
   N        3.90434         3.79991        -0.15519
   C        3.79141         0.31672        -0.10841
   C        4.62910        -0.77692        -0.11516
   C        5.40536        -1.72173        -0.11766
   C        6.17178        -2.81431        -0.11879
   C        6.84315        -3.83471        -0.12391
   C        7.54772        -5.02206        -0.13203
   N        6.93186        -6.24167         0.01315
   C        5.51115        -6.44701         0.15750
   C        4.77996        -6.30255        -1.17393
   C        7.85496        -7.30411        -0.05190
   O        7.54601        -8.47177         0.01753
   C        9.13310        -6.63945        -0.21992
   C        8.91353        -5.24284        -0.27818
   C       10.19447        -4.60109        -0.47762
   O       10.52172        -3.44110        -0.58134
   N       11.11633        -5.67764        -0.55035
   C       12.52925        -5.39184        -0.62860
   C       13.26113        -5.73805         0.66446
   C       10.49102        -6.89212        -0.38748
   C       11.02431        -8.21015        -0.39193
   C       12.21794        -8.64173        -0.86401
   C       12.63100       -10.00451        -0.85638
   C       12.16674       -11.07533        -0.10184
   C       11.26162       -10.93710         0.96465
   N       10.57341       -10.81841         1.87379
   C       12.80951       -12.29677        -0.44188
   C       13.76423       -12.11002        -1.43640
   S       13.90202       -10.48304        -1.96519
   S       14.60661       -13.54364        -1.93375
   C       13.65893       -14.42791        -0.78934
   C       12.74393       -13.66981        -0.05870
   C       11.99982       -14.48791         0.82532
   C       10.96963       -14.07222         1.68869
   N       10.10510       -13.79768         2.38821
   C       12.38889       -15.82275         0.78041
   S       13.64641       -16.10006        -0.40746
   C       11.77437       -16.87879         1.50549
   C       12.26084       -18.10819         1.80579
   C       11.29513       -19.20605         2.15087
   O       10.12945       -19.07475         2.42492
   C       12.08501       -20.43403         2.00572
   C       11.86269       -21.77816         2.06125
   S       13.34747       -22.65534         1.77470
   C       14.25271       -21.19671         1.59610
   C       13.45570       -20.10491         1.73930
   C       13.60328       -18.66250         1.75617
   C       14.78499       -18.00161         1.95857
   C       16.01838       -18.68558         1.96561
   N       17.02643       -19.23223         1.94994
   C       14.88078       -16.62685         2.25241
   N       14.98575       -15.51762         2.52785
  Cl       10.40416       -22.58398         2.35988
   H       -1.58888         1.97176         0.04343
   H        4.26423         1.29081        -0.13869
   H        5.11866        -5.72766         0.88220
   H        5.38671        -7.46143         0.54564
   H        4.90448        -5.29806        -1.57250
   H        3.71965        -6.48681        -1.02902
   H        5.16473        -7.02101        -1.89407
   H       12.59448        -4.31425        -0.81017
   H       12.97175        -5.90727        -1.48548
   H       12.84161        -5.16969         1.49083
   H       14.31304        -5.48373         0.56833
   H       13.17587        -6.79721         0.89612
   H       10.31859        -8.93964        -0.01556
   H       12.90411        -7.96523        -1.35154
   H       10.74283       -16.69990         1.79896
   H       15.30312       -21.24847         1.38836
*
