# ORCA input file
# SCF done       -188.720290346489          0.000963217563
! CAM-B3LYP def2-SVP def2/J RIJCOSX Grid4 TightSCF
%maxcore 5000
%tddft
    Mode sTDDFT
    Ethresh 5.0
    maxcore 5000
end

%pal
  nprocs 6
  end
* xyz 0 1
   C       11.94772         2.11015         4.14696
   C       12.93057         2.22416         5.08106
   S       14.19118         3.26954         4.53747
   C       13.38616         3.55635         3.01347
  Cl       14.06208         4.56614         1.83424
   C       12.20684         2.87395         2.96022
   C       11.12175         2.67976         1.99630
   O       11.02797         3.08941         0.86301
   C       10.13958         1.80261         2.70915
   C       10.68811         1.41090         4.00368
   C       10.18609         0.49201         4.87765
   C       10.89831         0.10843         6.03391
   N       11.47160        -0.24024         6.96445
   C        8.97816        -0.22035         4.72504
   N        8.00183        -0.82271         4.68948
   C        8.99079         1.39180         2.14558
   C        8.61135         1.72796         0.78134
   C        8.61707         0.75464        -0.22182
   N        8.23886         0.98559        -1.50725
   C        7.88786         2.16090        -1.90917
   C        7.87614         3.25476        -1.00745
   C        8.23209         3.02088         0.37120
   N        8.10424         4.17160         1.00979
   O        7.71035         5.05054         0.09457
   N        7.56468         4.53077        -1.11665
   C        9.09348        -0.55603         0.12180
   C        9.11593        -1.63998        -0.68600
   C        9.59755        -2.88236        -0.19271
   N        9.58498        -4.05428        -0.90772
   C        9.17856        -4.21700        -2.28342
   C       10.25528        -3.73633        -3.25252
   C       10.06725        -5.13518        -0.15494
   O       10.15920        -6.26863        -0.59117
   C       10.38904        -4.56399         1.13400
   C       10.10755        -3.17629         1.07518
   C       10.47069        -2.60271         2.35259
   O       10.47322        -1.45111         2.76068
   N       10.90990        -3.68655         3.11691
   C       11.30192        -3.52270         4.49751
   C       10.16003        -3.85379         5.45377
   C       10.86394        -4.86785         2.41266
   C       11.24617        -6.12123         2.94640
   C       11.24716        -7.23818         2.16958
   C       11.63054        -8.53566         2.60388
   C       11.73407        -9.64704         1.73610
   N       12.16827       -10.87481         2.13773
   C       12.47522       -11.14306         3.36022
   C       12.38257       -10.13717         4.35560
   C       11.96989        -8.81320         3.96030
   N       11.98715        -8.06639         5.04877
   O       12.37812        -8.86650         6.04340
   N       12.62087       -10.10944         5.65009
   C       11.40803        -9.56429         0.34028
   C       11.59429       -10.60292        -0.51354
   C       11.31375       -10.49417        -1.89544
   C       11.39395       -11.47949        -2.83303
   C       11.48548       -11.11100        -4.28002
   O       11.24114       -10.03327        -4.76626
   C       11.98811       -12.32732        -4.93257
   C       12.38997       -12.70290        -6.17890
   S       12.89415       -14.37692        -6.18293
   C       12.54526       -14.55142        -4.50064
   C       12.07748       -13.38973        -3.97290
   C       11.58571       -12.91025        -2.69311
   C       11.20547       -13.71891        -1.65492
   C       11.44576       -15.10868        -1.68943
   N       11.66003       -16.23583        -1.70062
   C       10.45060       -13.30846        -0.53636
   N        9.78269       -13.05777         0.36233
  Cl       12.43591       -11.76631        -7.59005
   H       13.00343         1.77125         6.04999
   H        8.33017         0.71854         2.67720
   H        7.60069         2.28085        -2.94343
   H        9.47477        -0.65317         1.12800
   H        8.74965        -1.56942        -1.69863
   H        8.23891        -3.68382        -2.44996
   H        9.00791        -5.28766        -2.42562
   H       10.47107        -2.68072        -3.10384
   H        9.92039        -3.88538        -4.27503
   H       11.17112        -4.30276        -3.10229
   H       11.58682        -2.47331         4.61523
   H       12.17481        -4.14666         4.70335
   H        9.29711        -3.22794         5.23684
   H       10.47600        -3.66472         6.47563
   H        9.86783        -4.89720         5.36244
   H       11.54697        -6.18036         3.98139
   H       10.94853        -7.13102         1.13970
   H       12.80749       -12.14310         3.59584
   H       10.98262        -8.64977        -0.04428
   H       12.01312       -11.51827        -0.12318
   H       11.09552        -9.50226        -2.27836
   H       12.71923       -15.49497        -4.02274
*
