# ORCA input file
# SCF done       -194.608183575825          0.000429557905
! CAM-B3LYP def2-SVP def2/J RIJCOSX Grid4 TightSCF
%maxcore 5000
%tddft
    Mode sTDDFT
    Ethresh 5.0
    maxcore 5000
end

%pal
  nprocs 6
  end
* xyz 0 1
   C        0.58966         0.78337         0.22206
   C       -0.63816         1.35040         0.37585
   S       -1.83467         0.15983         0.73039
   C       -0.66118        -1.13377         0.66930
  Cl       -1.10775        -2.74510         0.93559
   C        0.57862        -0.63942         0.38834
   C        1.92752        -1.18228         0.20439
   O        2.27904        -2.33517         0.28637
   C        2.78825         0.02434        -0.03934
   C        1.93881         1.21363        -0.07517
   C        2.30327         2.49331        -0.38824
   C        1.35777         3.54209        -0.40353
   N        0.60005         4.40272        -0.41632
   C        3.60147         2.91233        -0.74609
   N        4.63213         3.31045        -1.05650
   C        4.14068         0.02839        -0.02603
   C        5.00655        -1.13129        -0.03321
   C        6.15092        -1.12359         0.75988
   C        6.99454        -2.22208         0.80095
   N        8.16106        -2.11168         1.63680
   O        8.14148        -1.27445         2.51324
   O        9.10181        -2.85039         1.41888
   C        6.74555        -3.36904         0.01996
   C        5.62107        -3.33121        -0.81564
   C        4.77159        -2.25004        -0.84425
   C        7.57526        -4.54967         0.10013
   C        7.80357        -5.36645        -0.94893
   C        8.61563        -6.53542        -1.00972
   N        9.53752        -7.01815        -0.11338
   C        9.95230        -6.46094         1.15338
   C        9.05771        -6.93379         2.29802
   C       10.13867        -8.20697        -0.57756
   O       10.99096        -8.81007         0.04326
   C        9.52256        -8.45343        -1.86198
   C        8.60492        -7.40422        -2.09763
   C        7.98849        -7.62041        -3.38915
   O        7.15316        -6.99285        -4.00457
   N        8.59929        -8.79771        -3.86409
   C        8.21320        -9.38941        -5.12329
   C        7.24795       -10.55554        -4.92897
   C        9.50664        -9.30672        -2.96548
   C       10.27106       -10.47631        -3.19771
   C       11.13823       -10.97799        -2.27926
   C       11.90263       -12.14232        -2.53541
   O       12.73663       -12.62721        -1.58071
   C       11.99859       -12.96336        -3.65131
   C       11.50405       -13.19784        -5.01070
   O       10.70435       -12.58821        -5.67583
   N       12.18314       -14.34129        -5.41952
   C       13.06206       -14.88014        -4.48059
   O       13.73867       -15.86097        -4.63976
   C       12.93530       -13.97176        -3.33579
   C       13.36539       -13.73601        -2.04304
   C       14.24966       -14.49655        -1.23688
   C       14.52113       -14.21801         0.06076
   C       15.39836       -14.97171         0.88575
   C       15.77625       -16.27673         0.81846
   C       16.99722       -16.68215         1.59437
   O       17.56325       -16.01786         2.42792
   C       17.34237       -18.00701         1.07348
   C       18.34522       -18.91683         1.23076
   S       18.06120       -20.31843         0.22619
   C       16.58561       -19.66288        -0.38372
   C       16.33435       -18.43759         0.14957
   C       15.29108       -17.42889         0.07645
   C       14.03906       -17.67078        -0.42403
   C       13.71691       -18.90520        -1.02895
   N       13.43709       -19.90279        -1.52075
   C       12.93738       -16.80022        -0.34119
   N       11.99614       -16.14557        -0.28465
  Cl       19.71137       -18.80538         2.22527
   H       -0.92380         2.38162         0.31166
   H        4.65363         0.98046         0.04170
   H        6.39039        -0.26632         1.37259
   H        5.40111        -4.19222        -1.42673
   H        3.92683        -2.25573        -1.51315
   H        8.02857        -4.74707         1.05683
   H        7.34304        -5.14418        -1.90392
   H        9.98304        -5.37189         1.08344
   H       10.96867        -6.82752         1.32611
   H        8.01103        -6.70749         2.10459
   H        9.35838        -6.44833         3.22216
   H        9.15625        -8.00951         2.42179
   H        9.10373        -9.71716        -5.66501
   H        7.72186        -8.59452        -5.69126
   H        7.71378       -11.35258        -4.35458
   H        6.95642       -10.95173        -5.89715
   H        6.35589       -10.22013        -4.40517
   H       10.15565       -10.97905        -4.14765
   H       11.27553       -10.50345        -1.31693
   H       12.04167       -14.75791        -6.32902
   H       14.71557       -15.32839        -1.74610
   H       14.09908       -13.32060         0.49306
   H       15.89384       -14.41421         1.67670
   H       16.01783       -20.22419        -1.09881
*
