# ORCA input file
# SCF done       -169.577643810126          0.000914305801
! CAM-B3LYP def2-SVP def2/J RIJCOSX Grid4 TightSCF
%maxcore 5000
%tddft
    Mode sTDDFT
    Ethresh 5.0
    maxcore 5000
end

%pal
  nprocs 6
  end
* xyz 0 1
   C        0.93884         0.28011         0.08170
   C       -0.32387         0.78367         0.10524
   S       -1.48904        -0.46351         0.36739
   C       -0.24597        -1.69242         0.44708
  Cl       -0.63610        -3.32172         0.70450
   C        0.98574        -1.13911         0.27737
   C        2.38230        -1.59741         0.23526
   O        2.81030        -2.72221         0.36066
   C        3.17461        -0.35875         0.00007
   C        2.28964         0.78236        -0.09074
   C        2.61301         2.09931        -0.29925
   C        1.62107         3.09838        -0.36498
   N        0.82517         3.92340        -0.42209
   C        3.91853         2.59843        -0.46596
   N        4.96278         3.05507        -0.60920
   C        4.53871        -0.37711        -0.11244
   C        5.27325        -1.53425        -0.02227
   C        5.96776        -2.54084         0.04437
   C        6.64237        -3.68657         0.11694
   C        7.23994        -4.75246         0.17377
   C        7.85085        -5.98505         0.23006
   N        7.15630        -7.14372         0.50613
   C        5.75544        -7.20913         0.84186
   C        5.49880        -6.76165         2.27807
   C        7.98851        -8.26934         0.47178
   O        7.59597        -9.40410         0.67568
   C        9.29244        -7.73784         0.14294
   C        9.17858        -6.33399         0.00498
   C       10.48299        -5.80046        -0.33396
   O       10.87764        -4.67737        -0.55397
   N       11.31383        -6.93859        -0.36715
   C       12.70476        -6.83394        -0.73116
   C       12.92659        -7.21025        -2.19557
   C       10.62249        -8.09933        -0.09949
   C       11.21429        -9.37588        -0.09725
   C       10.50589       -10.51937         0.14154
   C       11.10530       -11.79021         0.11589
   S       10.18971       -13.24293         0.44242
   C       11.56117       -14.28956         0.22903
   C       11.43703       -15.76700         0.34064
   C       10.74204       -16.35600        -0.88968
   C       12.66029       -13.54597        -0.08608
   C       12.42962       -12.13308        -0.15245
   N       13.51011       -11.39203        -0.45486
   C       14.56960       -12.11625        -0.62206
   S       14.32877       -13.87896        -0.42685
   C       15.86464       -11.61789        -0.92087
   C       16.11477       -10.29384        -1.02572
   C       17.38700        -9.72637        -1.30679
   S       18.73982       -10.72870        -1.76249
   C       19.73857        -9.35484        -1.98344
   C       19.09451        -8.18621        -1.70809
   C       17.75368        -8.39181        -1.30970
   C       16.86381        -7.25256        -0.89787
   C       16.71782        -7.25301         0.62474
   F       17.89647        -7.13054         1.25020
   F       15.95055        -6.23327         1.04710
   F       16.14565        -8.36463         1.10937
   C       17.39758        -5.86185        -1.31335
   C       18.48264        -5.92910        -2.38233
   C       19.63311        -6.80711        -1.89183
   H       -0.65637         1.79582        -0.01242
   H        5.09105         0.53786        -0.28924
   H        5.45773        -8.25345         0.71465
   H        5.19118        -6.58065         0.14615
   H        6.05286        -7.38950         2.97225
   H        4.43923        -6.84162         2.50267
   H        5.80471        -5.72672         2.41515
   H       13.30348        -7.46182        -0.06478
   H       12.98073        -5.78719        -0.57186
   H       12.68326        -8.25597        -2.37126
   H       13.96192        -7.03861        -2.48017
   H       12.29417        -6.59478        -2.83110
   H       12.27201        -9.46203        -0.29553
   H        9.44603       -10.47015         0.35457
   H       10.85972       -16.01879         1.23298
   H       12.43754       -16.19418         0.43988
   H        9.74310       -15.93886        -0.99320
   H       10.66167       -17.43506        -0.79123
   H       11.30880       -16.12987        -1.78992
   H       16.65518       -12.34494        -1.04016
   H       15.28762        -9.61403        -0.88157
   H       20.75089        -9.48410        -2.31100
   H       15.85657        -7.41260        -1.29640
   H       17.82091        -5.36707        -0.43624
   H       16.56499        -5.24988        -1.66147
   H       18.07671        -6.34572        -3.30656
   H       18.83788        -4.91976        -2.59041
   H       20.01211        -6.42117        -0.94165
   H       20.45643        -6.81604        -2.60666
*
