# ORCA input file
# SCF done       -140.743543876782          0.000450280752
! CAM-B3LYP def2-SVP def2/J RIJCOSX Grid4 TightSCF
%maxcore 5000
%tddft
    Mode sTDDFT
    Ethresh 5.0
    maxcore 5000
end

%pal
  nprocs 6
  end
* xyz 0 1
   C        1.30418         0.52631        -0.19259
   C        0.05448         0.99343        -0.45516
   S       -0.85566        -0.14696        -1.37842
   C        0.47858        -1.27584        -1.41823
  Cl        0.34825        -2.76570        -2.21421
   C        1.54928        -0.77219        -0.74211
   C        2.91754        -1.20128        -0.43183
   O        3.45698        -2.22049        -0.80356
   C        3.46736        -0.11794         0.43805
   C        2.50073         0.97216         0.49137
   C        2.67079         2.22594         1.01601
   C        1.62896         3.17700         0.98397
   N        0.78924         3.95870         0.97106
   C        3.85568         2.73307         1.58711
   N        4.78992         3.22451         2.03841
   C        4.57105        -0.17047         1.24728
   C        5.60532        -1.13318         1.34673
   C        6.00975        -1.99677         0.37368
   C        7.04982        -2.93363         0.57471
   N        7.46638        -3.81884        -0.39022
   C        6.95202        -3.92744        -1.73516
   C        7.56078        -2.87499        -2.65837
   C        8.51421        -4.64213         0.06202
   O        9.03772        -5.50875        -0.60477
   C        8.73630        -4.20280         1.42439
   C        7.82544        -3.17038         1.71630
   C        8.06144        -2.76381         3.08676
   O        7.52971        -1.92753         3.78728
   N        9.10991        -3.59441         3.53363
   C        9.66780        -3.39176         4.84946
   C       10.99286        -2.63593         4.79196
   C        9.53156        -4.45450         2.54601
   C       10.54694        -5.43571         2.52834
   C       11.37605        -5.88068         3.51452
   C       12.39158        -6.85184         3.31872
   C       12.73325        -7.41786         2.12632
   C       13.80186        -8.32642         1.98487
   C       14.35592        -8.75026         0.81113
   C       15.20492        -9.97976         0.79899
   O       15.65292       -10.55268         1.76353
   C       15.31149       -10.33484        -0.62174
   C       15.84329       -11.34432        -1.36606
   S       15.54857       -11.07245        -3.06788
   C       14.72070        -9.59022        -2.75219
   C       14.66982        -9.33019        -1.41935
   C       14.17915        -8.27689        -0.54716
   C       13.82340        -7.02442        -0.97811
   C       13.74834        -6.72146        -2.35433
   N       13.67454        -6.46345        -3.46982
   C       13.61648        -5.89751        -0.15748
   N       13.49080        -4.93160         0.45047
  Cl       16.68624       -12.71090        -0.82585
   H       -0.40089         1.92058        -0.16910
   H        4.64871         0.62250         1.98318
   H        6.14767        -1.12697         2.28459
   H        5.53669        -1.97898        -0.59420
   H        5.86235        -3.84694        -1.71487
   H        7.22910        -4.92528        -2.08642
   H        7.33338        -1.87045        -2.30836
   H        7.16246        -2.99387        -3.66195
   H        8.64104        -2.99327        -2.69703
   H        9.77419        -4.35402         5.35628
   H        8.93069        -2.79436         5.39468
   H       11.71923        -3.15994         4.17507
   H       11.39639        -2.52328         5.79443
   H       10.83396        -1.64679         4.36984
   H       10.63981        -5.87613         1.54460
   H       11.29700        -5.48596         4.51564
   H       12.97943        -7.11508         4.18919
   H       12.17134        -7.17256         1.23833
   H       14.20041        -8.78814         2.88220
   H       14.32386        -9.02494        -3.57183
*
