# ORCA input file
# SCF done       -158.732361546212          0.005312181248
! CAM-B3LYP def2-SVP def2/J RIJCOSX Grid4 TightSCF
%maxcore 5000
%tddft
    Mode sTDDFT
    Ethresh 5.0
    maxcore 5000
end

%pal
  nprocs 6
  end
* xyz 0 1
   C        0.18343         1.20720        -1.27251
   C       -0.78752         0.98358        -0.33817
   C       -0.57433         0.25133         0.84904
   N       -0.44245        -0.33181         1.82838
   C       -2.13721         1.36058        -0.50951
   N       -3.25710         1.57211        -0.64192
   C        1.51165         0.60566        -1.29147
   C        2.02543         0.67259        -2.62158
   C        3.24603         0.15220        -2.94708
   C        4.02522        -0.45858        -1.93977
   C        3.52338        -0.51736        -0.60627
   C        2.25362         0.02306        -0.29878
   C        4.31567        -1.12337         0.39027
   C        5.54367        -1.64569         0.08706
   C        6.03691        -1.58665        -1.22546
   C        5.29337        -1.00717        -2.21749
   C        1.06541         1.37685        -3.48488
   O        1.12000         1.57295        -4.67489
   C        0.00760         1.87973        -2.54868
   C       -0.77300         2.91448        -2.93200
   C       -1.55383         3.76353        -2.09884
   S       -2.73786         4.87574        -2.76356
   C       -2.99132         5.39001        -1.10680
   N       -2.22253         4.75691        -0.26155
   N       -1.44395         3.87076        -0.80216
   C       -3.93290         6.40232        -0.76936
   C       -4.20729         6.72706         0.51349
   C       -5.11019         7.74532         0.92825
   S       -5.45464         7.92890         2.62252
   C       -6.50978         9.26729         2.32949
   C       -6.59324         9.56139         0.97564
   C       -5.80155         8.69409         0.17948
   C       -5.74540         8.83997        -1.21851
   N       -5.72149         8.99281        -2.35430
   C       -7.38374        10.59038         0.42519
   N       -8.01054        11.40058        -0.08649
   C       -7.18665         9.96971         3.36308
   S       -7.24218         9.45593         5.04162
   C       -8.22761        10.89866         5.29783
   N       -8.40693        11.57756         4.19996
   N       -7.84621        11.07392         3.14586
   C       -8.78808        11.28005         6.54474
   C       -8.71573        10.54728         7.68039
   C       -9.34303        10.98196         8.87830
   C       -9.39241        10.26615        10.03486
   C      -10.05872        10.65240        11.27027
   C      -10.60071        11.87600        11.56171
   C      -11.22617        12.19189        12.78811
   N      -11.74030        12.51559        13.76102
   C      -10.60126        13.00045        10.70810
   N      -10.63861        13.96123        10.07843
   C      -10.01549         9.50832        12.17244
   C       -9.27120         8.46282        11.55245
   C       -8.83435         8.89407        10.21596
   O       -8.16319         8.25995         9.42977
   C       -9.05735         7.26345        12.17059
   C       -9.59642         7.04660        13.45802
   C      -10.35075         8.08364        14.08154
   C      -10.54960         9.31700        13.42021
   C      -10.89136         7.85388        15.36340
   C      -10.69655         6.65840        16.00040
   C       -9.95226         5.63893        15.38653
   C       -9.41371         5.82867        14.14258
   H        3.61320         0.20812        -3.96120
   H        1.90128        -0.02436         0.71997
   H        3.93103        -1.16918         1.39855
   H        6.14261        -2.10788         0.85741
   H        7.00886        -2.00202        -1.44614
   H        5.66728        -0.95888        -3.22983
   H       -0.74114         3.17730        -3.98347
   H       -4.42303         6.89504        -1.59517
   H       -3.71075         6.17384         1.29933
   H       -9.32125        12.22209         6.52506
   H       -8.19227         9.60085         7.69335
   H       -9.83935        11.94361         8.83114
   H       -8.48897         6.48770        11.67885
   H      -11.12659        10.07982        13.91859
   H      -11.46335         8.64182        15.83201
   H      -11.11575         6.49132        16.98134
   H       -9.80811         4.70232        15.90425
   H       -8.83973         5.04746        13.66513
*
