# ORCA input file
# SCF done       -123.121077093280          0.000640104171
! CAM-B3LYP def2-SVP def2/J RIJCOSX Grid4 TightSCF
%maxcore 5000
%tddft
    Mode sTDDFT
    Ethresh 5.0
    maxcore 5000
end

%pal
  nprocs 6
  end
* xyz 0 1
   C       -3.48386         1.52820         2.52962
   C       -3.81206         1.21728         3.83308
   F       -3.92934        -0.07942         4.18019
   C       -4.02706         2.19239         4.79200
   C       -3.89817         3.52065         4.42039
   C       -3.57338         3.86171         3.12123
   C       -3.36907         2.86838         2.15948
   C       -3.03179         3.22522         0.79552
   S       -2.22938         2.10640        -0.25238
   C       -2.19840         3.25706        -1.55164
   C       -1.42190         2.93950        -2.72217
   O       -1.21388         3.67941        -3.65630
   C       -2.82105         4.44644        -1.18097
   C       -3.26308         4.41652         0.15679
   C       -2.96104         5.65859        -1.95686
   N       -3.41570         5.78731        -3.23784
   C       -4.01693         4.77335        -4.06943
   C       -5.26241         4.17039        -3.42754
   C       -3.39919         7.13752        -3.65481
   O       -3.78823         7.50088        -4.74778
   C       -2.88092         7.86235        -2.52091
   C       -2.65885         6.92022        -1.47734
   C       -2.15472         7.63104        -0.32561
   O       -1.87105         7.27078         0.79905
   N       -2.08904         8.97038        -0.75506
   C       -1.57071        10.00252         0.10883
   C       -0.11647        10.33828        -0.21349
   C       -2.51069         9.12016        -2.05913
   C       -2.54301        10.36673        -2.73774
   C       -2.96540        10.47770        -4.02181
   C       -3.01433        11.69389        -4.75608
   S       -3.54158        11.66546        -6.40660
   C       -3.32739        13.37927        -6.55978
   C       -3.53216        13.98425        -7.85454
   O       -3.38028        15.14954        -8.13647
   C       -2.87058        13.94024        -5.36832
   C       -2.69203        12.98142        -4.36522
   C       -2.59681        15.36596        -5.16854
   C       -1.39797        15.78314        -4.59508
   F       -0.47614        14.85904        -4.23790
   C       -1.10269        17.11632        -4.38917
   C       -2.03490        18.07266        -4.75093
   C       -3.24318        17.68546        -5.30729
   C       -3.52074        16.34798        -5.51541
   H       -3.32770         0.73771         1.81094
   H       -4.28235         1.90748         5.79995
   H       -4.04970         4.29665         5.15523
   H       -3.44942         4.89828         2.85153
   H       -0.98666         1.92239        -2.68650
   H       -3.75300         5.25414         0.61716
   H       -3.28228         4.00057        -4.30134
   H       -4.28484         5.28544        -4.99827
   H       -5.01692         3.64812        -2.50531
   H       -5.71783         3.46215        -4.11388
   H       -5.98697         4.95026        -3.20266
   H       -1.63705         9.60438         1.12560
   H       -2.20239        10.89268         0.03813
   H        0.50140         9.45119        -0.09860
   H        0.24484        11.10392         0.46749
   H       -0.01459        10.69973        -1.23430
   H       -2.21423        11.24183        -2.19749
   H       -3.28709         9.58926        -4.54925
   H       -3.84464        13.24570        -8.61969
   H       -2.34246        13.22841        -3.37915
   H       -0.15293        17.38640        -3.95482
   H       -1.81543        19.11806        -4.59788
   H       -3.97194        18.43057        -5.58610
   H       -4.46246        16.05120        -5.94852
*
