# ORCA input file
# SCF done       -144.248451356343          0.000876813063
! CAM-B3LYP def2-SVP def2/J RIJCOSX Grid4 TightSCF
%maxcore 5000
%tddft
    Mode sTDDFT
    Ethresh 5.0
    maxcore 5000
end

%pal
  nprocs 6
  end
* xyz 0 1
   C        0.21795        -0.97133         2.69849
   N        0.12825        -0.07821         3.71896
   C        0.46737        -0.33540         5.09610
   C       -0.57598        -1.21608         5.77847
   C       -0.40874         1.15750         3.27982
   O       -0.58140         2.11115         4.01049
   C       -0.64039         0.94683         1.87170
   C       -0.23847        -0.38727         1.55016
   C       -0.46147        -0.57598         0.13382
   O       -0.27703        -1.51687        -0.60481
   N       -0.98082         0.66494        -0.30984
   C       -1.35495         0.80842        -1.69557
   C       -2.86171         0.66300        -1.90005
   C       -1.09283         1.57268         0.72179
   C       -1.54319         2.92814         0.71784
   C       -2.01495         3.67729        -0.29923
   C       -2.42778         5.05410        -0.19204
   C       -2.35743         5.85087         0.96262
   N       -2.74018         7.10755         0.98152
   C       -3.20934         7.63089        -0.14881
   N       -3.33083         6.97186        -1.29798
   C       -2.95022         5.71675        -1.31531
   C       -3.62151         9.04306        -0.13699
   N       -4.18783         9.51429        -1.24540
   C       -4.54470        10.78534        -1.23760
   C       -4.34848        11.60491        -0.13877
   C       -3.75137        11.01737         0.98518
   N       -3.39348         9.73335         0.96756
   C       -3.50625        11.78187         2.19131
   C       -2.94248        11.23857         3.28193
   C       -2.67935        11.92692         4.51983
   C       -2.27702        11.22304         5.66462
   N       -2.04581        11.80089         6.82172
   C       -2.20291        13.12668         6.89089
   N       -2.56889        13.89441         5.86179
   C       -2.79433        13.31563         4.70993
   C       -1.95505        13.82558         8.12957
   N       -1.78000        13.24226         9.35873
   C       -1.89461        11.84272         9.69271
   C       -3.35272        11.39668         9.74666
   C       -1.55649        14.20295        10.36059
   O       -1.38688        13.92109        11.53192
   C       -1.57820        15.46540         9.65998
   C       -1.83184        15.19579         8.28330
   C       -1.81326        16.45860         7.57126
   O       -1.94599        16.76620         6.41059
   N       -1.55610        17.41450         8.58822
   C       -1.52136        18.82294         8.28117
   C       -2.83086        19.51730         8.64900
   C       -1.41918        16.83342         9.82186
   C       -1.13888        17.57632        11.01881
   C       -1.02742        17.00207        12.21806
   H        0.60998        -1.95854         2.86079
   H        0.51443         0.63944         5.58877
   H        1.45303        -0.80859         5.14150
   H       -1.54968        -0.73326         5.74944
   H       -0.29903        -1.37981         6.81610
   H       -0.65073        -2.18048         5.28067
   H       -0.84311        -0.00299        -2.22300
   H       -0.98239         1.75981        -2.08331
   H       -3.17679        -0.33331        -1.59986
   H       -3.10660         0.80203        -2.94970
   H       -3.41460         1.38977        -1.30887
   H       -1.47009         3.36874         1.70388
   H       -2.11725         3.26966        -1.29355
   H       -1.97965         5.46528         1.90088
   H       -3.06112         5.20229        -2.26348
   H       -5.00308        11.15189        -2.14762
   H       -4.64037        12.64291        -0.14274
   H       -3.81434        12.81744         2.16425
   H       -2.67737        10.18976         3.24095
   H       -2.14693        10.14769         5.63940
   H       -3.07299        13.98302         3.90472
   H       -1.43610        11.73325        10.67954
   H       -1.34725        11.25324         8.95645
   H       -3.90547        11.99974        10.46344
   H       -3.40602        10.35537        10.05103
   H       -3.81554        11.49739         8.76819
   H       -1.36333        18.88986         7.20081
   H       -0.67469        19.29228         8.79021
   H       -3.65431        19.06472         8.10225
   H       -2.77661        20.57066         8.38758
   H       -3.03367        19.42970         9.71421
   H       -1.01276        18.64496        10.91156
   H       -1.14685        15.93920        12.34731
   H       -0.81290        17.58566        13.09690
*
