# ORCA input file
# SCF done       -141.045341327391          0.000300670644
! CAM-B3LYP def2-SVP def2/J RIJCOSX Grid4 TightSCF
%maxcore 5000
%tddft
    Mode sTDDFT
    Ethresh 5.0
    maxcore 5000
end

%pal
  nprocs 6
  end
* xyz 0 1
   C        0.94980        -0.32562        -2.76877
   C       -0.06780         0.04858        -1.89848
   N       -0.88329        -0.83636        -1.35899
   C       -0.69844        -2.12296        -1.68048
   C        0.33014        -2.48780        -2.56209
   N        1.14067        -1.59715        -3.09571
   C       -1.59322        -3.07746        -1.08200
   C       -2.63610        -2.79524        -0.22814
   C       -3.30707        -3.95187         0.17830
   C       -2.75879        -5.12022        -0.37804
   S       -1.42990        -4.79644        -1.39618
   C       -3.49481        -6.23701         0.09586
   C       -4.50716        -5.77660         0.94954
   C       -4.42530        -4.32288         1.02715
   C       -5.23315        -3.49288         1.74659
   C       -6.29665        -3.97840         2.53681
   N       -7.16182        -4.36666         3.18134
   C       -5.06617        -2.09155         1.75175
   N       -4.94320        -0.95182         1.76505
   C       -5.28492        -6.80654         1.47943
   C       -4.87174        -8.04929         1.03611
   S       -3.50051        -7.94036        -0.05805
   C       -5.41512        -9.31307         1.37960
   C       -4.99746       -10.55369         0.94214
   C       -5.75807       -11.57851         1.50815
   C       -6.76622       -11.11521         2.38408
   S       -6.76944        -9.39611         2.50206
   C       -7.42135       -12.24417         2.87109
   C       -6.79469       -13.36499         2.27858
   N       -5.78131       -12.94711         1.45773
   C       -4.92798       -13.77531         0.65235
   C       -7.34049       -14.58464         2.68411
   C       -8.37453       -14.40442         3.58021
   S       -8.69500       -12.70998         3.93411
   C       -9.14864       -15.40811         4.21572
   C      -10.18039       -15.23072         5.11885
   C      -10.70724       -16.44608         5.55700
   C      -10.07339       -17.55736         4.98356
   S       -8.82825       -17.10746         3.90100
   C      -10.67146       -18.73643         5.49878
   C      -11.68518       -18.36911         6.40018
   C      -11.74508       -16.91963         6.46519
   C      -12.59062       -16.15615         7.21435
   C      -13.56478       -16.71924         8.06617
   N      -14.36114       -17.16188         8.76194
   C      -12.55153       -14.74581         7.18881
   N      -12.52530       -13.59957         7.17441
   C      -12.32784       -19.47304         6.96727
   C      -11.81252       -20.66328         6.50453
   S      -10.51310       -20.42746         5.34862
   C      -12.23869       -21.98351         6.88567
   C      -11.67309       -23.15223         6.35413
   N      -12.07519       -24.35161         6.72118
   C      -13.04704       -24.41994         7.62172
   C      -13.61771       -23.26895         8.15319
   N      -13.22066       -22.06423         7.79233
   H        1.62376         0.39199        -3.21378
   H       -0.23789         1.08020        -1.62245
   H        0.49732        -3.52092        -2.83910
   H       -2.87110        -1.78918         0.06654
   H       -6.11079        -6.67926         2.15581
   H       -4.18416       -10.68467         0.25136
   H       -4.95847       -14.79563         1.02910
   H       -3.90224       -13.40808         0.70295
   H       -5.25089       -13.77317        -0.39287
   H       -7.01866       -15.55759         2.35879
   H      -10.51468       -14.25774         5.43081
   H      -13.12962       -19.44206         7.68171
   H      -10.88020       -23.11236         5.61809
   H      -13.36436       -25.41076         7.91289
   H      -14.41177       -23.30673         8.88627
*
