# ORCA input file
# SCF done       -199.052426055728          0.000927218267
! CAM-B3LYP def2-SVP def2/J RIJCOSX Grid4 TightSCF
%maxcore 5000
%tddft
    Mode sTDDFT
    Ethresh 5.0
    maxcore 5000
end

%pal
  nprocs 6
  end
* xyz 0 1
   C       12.71166        -2.79280       -12.49923
   C       13.00569        -2.41601       -13.77872
   F       13.92304        -3.11139       -14.48022
   C       12.37719        -1.33607       -14.41019
   C       11.41946        -0.63872       -13.72809
   C       11.06364        -0.99212       -12.41055
   C       11.73031        -2.08376       -11.78089
   C       11.39553        -2.45269       -10.45759
   C       10.41873        -1.76010        -9.79570
   C        9.75039        -0.67237       -10.43010
   C       10.06040        -0.29083       -11.70407
   C        8.76511        -0.09103        -9.49683
   O        7.96736         0.79335        -9.70554
   C        9.01141        -0.78430        -8.20024
   C        9.85468        -1.93171        -8.46233
   C        9.89049        -3.08590        -7.72387
   C        9.10398        -3.28186        -6.56984
   N        8.44455        -3.48055        -5.65129
   C       10.64751        -4.22019        -8.07625
   N       11.26163        -5.16132        -8.31055
   C        8.57544        -0.23125        -7.03564
   C        9.09846        -0.42364        -5.73377
   C        8.50192        -0.07394        -4.53526
   C        9.33241        -0.31311        -3.44334
   C       10.59037        -0.81582        -3.80450
   S       10.74007        -1.01744        -5.50141
   C       11.42009        -1.01461        -2.70483
   C       10.81053        -0.66900        -1.49351
   S        9.17956        -0.09599        -1.71821
   C       11.64098        -0.84464        -0.38241
   C       12.88439        -1.32499        -0.73745
   S       13.02858        -1.57204        -2.47510
   C       14.02122        -1.60620         0.07671
   C       15.18023        -2.09122        -0.47435
   C       16.35989        -2.34488         0.21543
   C       16.47214        -2.08637         1.65329
   C       15.44828        -1.63113         2.40885
   S       13.88059        -1.27172         1.79748
   C       17.82188        -2.40112         1.97487
   C       18.50705        -2.81364         0.82608
   C       19.85084        -3.14526         1.10666
   C       20.14576        -2.97515         2.42219
   S       18.81631        -2.41159         3.37561
   C       17.59674        -2.79043        -0.28773
   C       17.79270        -3.11645        -1.64902
   C       18.95176        -3.30047        -2.33100
   C       18.94567        -3.55447        -3.73020
   C       17.87570        -3.94029        -4.51727
   C       18.20253        -3.98134        -5.86811
   C       19.53141        -3.62909        -6.14591
   S       20.39227        -3.28021        -4.68960
   C       19.79399        -3.60888        -7.51646
   C       18.65905        -3.95149        -8.27445
   S       17.27120        -4.32789        -7.29534
   C       18.84742        -3.85820        -9.64386
   C       20.13010        -3.44555        -9.96945
   S       21.12342        -3.21836        -8.53325
   C       20.69467        -3.23699       -11.24342
   C       20.05172        -3.03931       -12.43181
   C       20.78393        -3.29515       -13.70245
   O       21.97732        -3.44922       -13.83118
   C       19.73968        -3.37430       -14.74247
   C       19.85700        -3.71488       -16.05885
   C       18.69557        -3.76874       -16.86290
   C       17.42842        -3.47470       -16.28062
   C       16.27186        -3.54866       -17.08037
   C       16.39073        -3.89076       -18.39841
   C       17.62718        -4.17733       -18.99250
   C       18.75908        -4.11646       -18.22767
   F       15.28782        -3.95844       -19.16827
   C       17.33806        -3.10992       -14.91705
   C       18.47800        -3.05390       -14.16350
   C       18.68940        -2.69195       -12.76460
   C       17.82770        -1.92860       -12.01673
   C       18.15759        -1.37035       -10.76578
   N       18.38543        -0.85805        -9.76389
   C       16.54403        -1.52996       -12.43751
   N       15.48292        -1.17470       -12.69811
   H       13.22075        -3.62652       -12.04177
   H       12.66032        -1.07658       -15.41797
   H       10.91869         0.19639       -14.19437
   H       11.92771        -3.26816        -9.99339
   H        9.54490         0.53571       -12.16994
   H        7.80585         0.52829        -7.13034
   H        7.50060         0.31017        -4.47052
   H       11.35690        -0.63123         0.63165
   H       15.16484        -2.26610        -1.54159
   H       15.54014        -1.44938         3.46799
   H       20.56569        -3.49753         0.38619
   H       21.08406        -3.14937         2.91164
   H       16.87972        -3.17326        -2.22530
   H       19.91083        -3.17952        -1.85143
   H       16.90425        -4.19155        -4.13593
   H       18.10005        -4.11194       -10.37318
   H       21.77591        -3.30480       -11.31023
   H       20.82313        -3.94475       -16.48254
   H       15.30570        -3.34017       -16.64979
   H       17.65913        -4.44205       -20.03755
   H       19.72242        -4.33670       -18.66262
   H       16.36620        -2.90139       -14.50123
*
