# ORCA input file
# SCF done       -276.657712341893          0.000996299804
! CAM-B3LYP def2-SVP def2/J RIJCOSX Grid4 TightSCF
%maxcore 5000
%tddft
    Mode sTDDFT
    Ethresh 5.0
    maxcore 5000
end

%pal
  nprocs 6
  end
* xyz 0 1
   C       -0.29964         1.78717         5.73186
   C       -1.34138         2.65693         5.89546
   F       -1.91597         2.78192         7.10529
   C       -1.84283         3.43570         4.84322
   C       -1.27119         3.32386         3.60653
   C       -0.19350         2.44268         3.38109
   C        0.30022         1.65758         4.46389
   C        1.37345         0.75979         4.26107
   C        1.93417         0.65325         3.01653
   C        1.44897         1.45450         1.94253
   C        0.40996         2.32450         2.10931
   C        2.24913         1.18546         0.73221
   O        2.09541         1.63751        -0.37848
   C        3.34192         0.27535         1.18094
   C        3.00937        -0.19701         2.51379
   C        3.43345        -1.35829         3.10071
   C        4.28981        -2.30196         2.49514
   N        4.92623        -3.14890         2.05307
   C        2.99168        -1.80041         4.36545
   N        2.68047        -2.19638         5.39682
   C        4.44019         0.10200         0.40891
   C        5.71285        -0.44432         0.80412
   C        6.46483        -1.19707        -0.10341
   C        7.63905        -1.79711         0.29083
   C        8.14030        -1.60899         1.58029
   C        7.42950        -0.79062         2.46188
   C        6.23112        -0.23146         2.08732
   C        9.34226        -2.32115         2.02701
   C        9.40154        -3.74082         1.64453
   C        8.25363        -4.52987         1.71356
   C        8.29957        -5.86128         1.34497
   C        9.48280        -6.41986         0.89074
   C       10.62245        -5.63704         0.79965
   C       10.58453        -4.30739         1.17260
   C       10.30320        -1.71524         2.76553
   C       11.38174        -2.45415         3.43760
   C       12.68711        -1.96597         3.40923
   C       13.70461        -2.64636         4.05109
   C       13.43177        -3.81425         4.74364
   C       12.13344        -4.29574         4.79542
   C       11.11487        -3.62328         4.14876
   C       10.33478        -0.25556         2.93284
   C       10.52971         0.31312         4.19162
   C       10.54989         1.68157         4.34842
   C       10.41836         2.52936         3.24587
   C       10.25283         1.95845         1.98042
   C       10.20164         0.59045         1.83118
   C       10.45229         3.96564         3.40438
   C       10.83028         4.91149         2.48109
   C       10.72973         6.21491         2.98577
   C       10.25210         6.25193         4.30041
   S        9.95780         4.69257         4.92560
   C       10.16918         7.61299         4.71436
   C       10.61425         8.42500         3.66536
   C       10.98272         7.57688         2.54256
   C       11.46333         7.97539         1.32915
   C       11.68239         9.33331         1.01876
   N       11.86457        10.43695         0.76532
   C       11.77152         7.05572         0.30561
   N       12.02101         6.31218        -0.53135
   C       10.55912         9.79033         3.97437
   C       10.06056        10.01935         5.23551
   S        9.66226         8.52218         6.06502
   C        9.83205        11.28896         5.88585
   C        8.88733        11.40844         6.90852
   C        8.64195        12.62581         7.50358
   C        9.35902        13.76108         7.12442
   C       10.31013        13.64134         6.11021
   C       10.53858        12.43080         5.49476
   C        9.08124        15.05975         7.75173
   C        7.65723        15.40783         7.87154
   C        6.78627        15.16022         6.81170
   C        5.44426        15.47280         6.91872
   C        4.94910        16.02154         8.08997
   C        5.80330        16.25129         9.15654
   C        7.14686        15.94806         9.05095
   C       10.07281        15.88025         8.17508
   C        9.82748        17.26936         8.59791
   C       10.44904        17.76909         9.74204
   C       10.23923        19.07747        10.13553
   C        9.41803        19.90711         9.38986
   C        8.81065        19.42319         8.24241
   C        9.01301        18.11492         7.84691
   C       11.46825        15.44502         8.27883
   C       12.50242        16.31778         7.92798
   C       13.81610        15.97648         8.14587
   C       14.14660        14.73960         8.71279
   C       13.11527        13.83709         8.99275
   C       11.80050        14.19406         8.80352
   C       15.50967        14.37816         9.00170
   C       16.51685        15.18496         9.40991
   C       17.92763        14.71071         9.31900
   O       18.29617        13.57581         9.12280
   C       18.75427        15.92341         9.46305
   C       20.10723        16.05865         9.33969
   C       20.68966        17.33580         9.49615
   C       19.85154        18.45616         9.76992
   C       20.43811        19.72834         9.91777
   C       21.79365        19.85995         9.80041
   C       22.63470        18.77057         9.53374
   C       22.08206        17.52920         9.38492
   F       22.35588        21.07357         9.94329
   C       18.45361        18.28601         9.89708
   C       17.91295        17.03604         9.75511
   C       16.53711        16.56091         9.87457
   C       15.53271        17.21952        10.53099
   C       14.28621        16.65585        10.87494
   N       13.27921        16.25693        11.25510
   C       15.65452        18.53280        11.03171
   N       15.69120        19.60467        11.44134
   H        0.05805         1.20015         6.56336
   H       -2.66732         4.10470         5.03229
   H       -1.64015         3.91332         2.78071
   H        1.73295         0.18445         5.09956
   H        0.05272         2.91684         1.28026
   H        4.35601         0.45929        -0.61275
   H        6.08499        -1.35228        -1.10233
   H        8.18716        -2.41753        -0.40306
   H        7.80759        -0.62962         3.46028
   H        5.69086         0.39625         2.78221
   H        7.32706        -4.09942         2.06500
   H        7.40566        -6.46344         1.41089
   H        9.51645        -7.46007         0.60217
   H       11.54444        -6.06392         0.43265
   H       11.47130        -3.69645         1.08698
   H       12.90187        -1.05676         2.86522
   H       14.71402        -2.26361         4.01181
   H       14.22707        -4.34480         5.24573
   H       11.91364        -5.19919         5.34494
   H       10.10207        -3.99439         4.20091
   H       10.64553        -0.33083         5.05157
   H       10.68473         2.10929         5.33196
   H       10.14608         2.59590         1.11619
   H       10.07016         0.16280         0.84820
   H       11.18525         4.66626         1.49701
   H       10.84284        10.57685         3.29964
   H        8.33143        10.53548         7.22052
   H        7.89805        12.70532         8.28314
   H       10.86114        14.51531         5.79540
   H       11.27840        12.36047         4.71237
   H        7.17255        14.73601         5.89537
   H        4.78201        15.28685         6.08573
   H        3.90029        16.26484         8.17319
   H        5.41940        16.66749        10.07626
   H        7.80782        16.11716         9.88792
   H       11.09018        17.12537        10.32771
   H       10.72177        19.45044        11.02683
   H        9.25625        20.92938         9.69806
   H        8.17948        20.06975         7.65037
   H        8.54990        17.74514         6.94369
   H       12.26039        17.27504         7.48920
   H       14.60482        16.65729         7.85752
   H       13.35833        12.87613         9.42136
   H       11.01443        13.51215         9.08951
   H       15.78276        13.33976         8.83983
   H       20.72622        15.20022         9.12573
   H       19.82172        20.58854        10.12757
   H       23.69731        18.93557         9.45205
   H       22.70909        16.67478         9.17904
   H       17.84278        19.15241        10.09586
*
