# ORCA input file
# SCF done       -211.472095043592          0.000753703588
! CAM-B3LYP def2-SVP def2/J RIJCOSX Grid4 TightSCF
%maxcore 5000
%tddft
    Mode sTDDFT
    Ethresh 5.0
    maxcore 5000
end

%pal
  nprocs 6
  end
* xyz 0 1
   C       -2.68074        -0.26988        -4.40684
   C       -2.14173         0.43836        -5.45146
   C       -1.22313        -0.09807        -6.37712
   N       -0.48171        -0.47820        -7.16710
   C       -2.38963         1.79842        -5.73152
   N       -2.52272         2.90401        -6.01404
   C       -2.33948        -1.64259        -4.05406
   C       -2.97579        -1.96466        -2.83145
   C       -2.84712        -3.19171        -2.22815
   C       -2.05492        -4.15146        -2.86698
   C       -1.42747        -3.82325        -4.09234
   C       -1.55411        -2.57965        -4.69914
   S       -0.50588        -5.15780        -4.71601
   C       -0.97005        -6.12515        -3.34145
   C       -1.77185        -5.48370        -2.45877
  Br       -0.35301        -7.89068        -3.20299
   C       -3.77026        -0.80989        -2.36660
   O       -4.44795        -0.77377        -1.36158
   C       -3.61475         0.22586        -3.41396
   C       -4.34905         1.37454        -3.55842
   C       -5.21626         2.01408        -2.65658
   C       -5.39211         1.89510        -1.28161
   C       -6.35034         2.77045        -0.79559
   C       -6.93758         3.57381        -1.80984
   S       -6.26792         3.26688        -3.34316
   C       -7.92168         4.38849        -1.22716
   C       -7.96337         4.12041         0.16130
   C       -6.97602         3.09392         0.47196
   C       -6.71901         2.55461         1.69828
   C       -5.69981         1.60265         1.92085
   N       -4.87044         0.84319         2.14238
   C       -7.46681         2.88637         2.84859
   N       -8.08802         3.10555         3.78761
   C       -8.89037         4.88547         0.84119
   C       -9.59430         5.74791        -0.00681
   S       -9.06615         5.57570        -1.68418
   C      -10.60847         6.66540         0.28574
   C      -11.04350         7.05176         1.53673
   C      -12.10635         7.94569         1.80819
   C      -12.31506         8.18735         3.13689
   C      -11.41485         7.50804         3.97899
   S      -10.31355         6.53553         3.03917
   C      -11.29283         7.52400         5.36135
   C      -12.08409         8.15966         6.33641
   C      -11.65335         7.94116         7.61452
   C      -10.49324         7.13633         7.71084
   S       -9.98076         6.65240         6.11112
   C       -9.86015         6.77107         8.88064
   C       -8.68409         6.02658         9.01475
   C       -7.80002         5.54462         8.04245
   C       -6.73209         4.86487         8.59517
   C       -6.77544         4.79842        10.00822
   S       -8.14263         5.60409        10.64325
   C       -5.64971         4.08760        10.45956
   C       -4.88485         3.69358         9.33340
   C       -5.52769         4.18737         8.13293
   C       -5.05702         4.09581         6.85506
   C       -5.69831         4.68853         5.74777
   N       -6.18457         5.18234         4.83381
   C       -3.84581         3.42779         6.57310
   N       -2.86053         2.88025         6.36177
   C       -3.72321         3.02125         9.67920
   C       -3.57389         2.89272        11.05463
   S       -4.93786         3.59527        11.92676
   C       -2.54411         2.27157        11.78512
   C       -1.28683         1.92563        11.38018
   C       -0.47007         2.28485        10.24253
   C       -0.50104         3.46324         9.53960
   C        0.42700         3.80265         8.53309
   N        1.16328         4.13365         7.71746
   C       -1.38794         4.52195         9.81043
   N       -2.06881         5.42474        10.01211
   C        0.59930         1.29419        10.14857
   C        0.58926         0.49998        11.32274
   C       -0.54046         0.91366        12.17686
   O       -0.83550         0.49860        13.27457
   C        1.51173        -0.49218        11.54948
   C        2.48045        -0.71896        10.56583
   C        2.46746         0.06510         9.38732
   C        1.53936         1.07466         9.16086
   S        3.74266        -0.39302         8.30081
   C        4.27415        -1.60938         9.43145
   C        3.53371        -1.67408        10.56337
  Br        5.75557        -2.67944         9.01123
   H       -3.34320        -3.40392        -1.29409
   H       -1.05963        -2.38017        -5.63500
   H       -2.15021        -5.92970        -1.55719
   H       -4.29089         1.86478        -4.52364
   H       -4.83883         1.19305        -0.68570
   H       -9.06941         4.81095         1.89647
   H      -11.09358         7.13639        -0.55938
   H      -12.68727         8.38181         1.01483
   H      -13.07704         8.84072         3.52219
   H      -12.94635         8.74793         6.07875
   H      -12.13194         8.34003         8.49141
   H      -10.32830         7.09846         9.80008
   H       -7.93058         5.69875         6.98833
   H       -3.02983         2.59841         8.97533
   H       -2.79220         1.96330        12.79655
   H        1.48824        -1.07535        12.45659
   H        1.56090         1.64082         8.24445
   H        3.72094        -2.36538        11.36461
*
