# ORCA input file
# SCF done       -206.737051423312          0.000693144197
! CAM-B3LYP def2-SVP def2/J RIJCOSX Grid4 TightSCF
%maxcore 5000
%tddft
    Mode sTDDFT
    Ethresh 5.0
    maxcore 5000
end

%pal
  nprocs 6
  end
* xyz 0 1
   C        1.69978        -2.60392         0.43147
   C        2.79466        -1.94065         0.89299
   C        2.61536        -0.54486         0.82515
   C        1.36530        -0.19141         0.30325
   S        0.42305        -1.55622        -0.09844
   C        1.26886         1.22982         0.27417
   C        2.46031         1.76320         0.78011
   C        3.34921         0.66479         1.14021
   C        4.60741         0.76819         1.66062
   C        5.20693         2.01827         1.91540
   N        5.69171         3.03759         2.12110
   C        5.38827        -0.36295         1.97484
   N        6.02808        -1.27896         2.23337
   C        2.46779         3.15928         0.80266
   C        1.28867         3.68902         0.31548
   S        0.15669         2.44324        -0.17930
   C        0.94044         5.06465         0.19755
   C        1.66685         6.14320         0.61280
   C        1.05362         7.39982         0.36737
   C       -0.21962         7.24153        -0.27456
   S       -0.56636         5.53987        -0.53759
   C       -1.04121         8.30284        -0.61468
   O       -2.25453         8.29643        -1.22095
   C       -2.87684         7.09337        -1.60301
   C       -0.56763         9.59218        -0.28660
   C        0.67725         9.74686         0.34593
   C        1.51799         8.69114         0.67868
   O        2.67203         9.08479         1.27945
   C        3.74269         8.20832         1.52808
   S        1.03343        11.41731         0.66252
   C       -0.49079        11.90199        -0.06021
   C       -1.21108        10.83012        -0.51315
   C       -0.86151        13.27618        -0.11035
   C       -1.94542        13.83216        -0.76195
   C       -2.01769        15.21385        -0.57180
   C       -0.98117        15.70897         0.23452
   S        0.08740        14.47898         0.74530
   C       -1.16144        17.10852         0.38990
   C       -2.30517        17.49797        -0.32242
   C       -2.87853        16.32165        -0.95733
   C       -3.98975        16.26705        -1.74677
   C       -4.75295        17.41213        -2.05711
   N       -5.37993        18.33641        -2.31614
   C       -4.45153        15.05901        -2.30945
   N       -4.83194        14.07904        -2.76811
   C       -2.57899        18.86401        -0.20843
   C       -1.65911        19.51206         0.58843
   S       -0.42383        18.41842         1.19989
   C       -1.64159        20.88699         0.95420
   C       -0.76152        21.50171         1.80073
   C       -1.02053        22.88364         1.99794
   C       -2.15158        23.28947         1.24290
   S       -2.85135        21.98466         0.32930
   C       -2.69426        24.56770         1.20171
   O       -3.77787        24.67222         0.38943
   C       -4.43083        25.89876         0.17765
   C       -2.06563        25.54648         1.99331
   C       -0.93383        25.14004         2.74723
   C       -0.38593        23.86513         2.78100
   O        0.70389        23.76081         3.58949
   C        1.37737        22.54042         3.76361
   S       -0.25948        26.43859         3.68661
   C       -1.48710        27.53002         3.08670
   C       -2.34793        26.92025         2.21570
   C       -1.52451        28.88930         3.51414
   C       -2.41065        29.87304         3.12031
   C       -2.15563        31.09067         3.75551
   C       -1.06941        31.03019         4.63654
   S       -0.35888        29.47854         4.68411
   C       -0.90200        32.31545         5.23027
   C       -1.88127        33.17577         4.72079
   C       -2.70221        32.44188         3.77700
   C       -3.76377        32.90753         3.05574
   C       -4.21367        34.24042         3.15176
   N       -4.58486        35.32306         3.22579
   C       -4.47971        32.08195         2.16506
   N       -5.06244        31.40897         1.44139
   C       -1.79043        34.47416         5.25989
   C       -0.76503        34.57052         6.14945
   S        0.11727        33.09167         6.35700
   H        1.55145        -3.66299         0.36486
   H        3.67825        -2.42928         1.26098
   H        3.28696         3.76044         1.15035
   H        2.61353         6.01280         1.09690
   H       -3.81872         7.39468        -2.05998
   H       -3.08509         6.45198        -0.74261
   H       -2.28263         6.54247        -2.33667
   H        4.56540         8.85079         1.84179
   H        4.03867         7.66328         0.62779
   H        3.51343         7.51026         2.33870
   H       -2.17389        10.90326        -0.98218
   H       -2.63848        13.25536        -1.34527
   H       -3.40546        19.37524        -0.66804
   H        0.03517        20.94649         2.25851
   H       -5.20966        25.68254        -0.55282
   H       -3.75203        26.65035        -0.23433
   H       -4.89601        26.27025         1.09507
   H        2.18779        22.76000         4.45816
   H        1.80120        22.17670         2.82307
   H        0.72552        21.78023         4.20361
   H       -3.15740        27.46018         1.76606
   H       -3.19812        29.70960         2.40871
   H       -2.44211        35.29086         5.00845
   H       -0.45990        35.43034         6.71129
*
