# ORCA input file
# SCF done       -188.112835100040          0.000688612055
! CAM-B3LYP def2-SVP def2/J RIJCOSX Grid4 TightSCF
%maxcore 5000
%tddft
    Mode sTDDFT
    Ethresh 5.0
    maxcore 5000
end

%pal
  nprocs 6
  end
* xyz 0 1
   C        1.03712         4.88143         8.56391
   C       -0.22934         4.83773         9.08574
   C       -0.64347         3.91434        10.06873
   N       -1.04902         3.17221        10.84497
   C       -1.25314         5.76194         8.79924
   N       -2.11340         6.51203         8.67589
   C        2.18684         4.13145         9.06175
   C        3.37527         4.68658         8.50144
   C        4.61307         4.20738         8.82033
   C        4.72264         3.12777         9.72526
   C        3.53932         2.56154        10.28173
   C        2.27055         3.08046         9.93569
   C        3.66080         1.48372        11.18219
   C        4.89109         0.98826        11.51877
   C        6.05544         1.54569        10.96950
   C        5.97312         2.59282        10.09207
   C        3.01545         5.77294         7.57550
   O        3.75079         6.48974         6.93489
   C        1.52548         5.77996         7.54024
   C        0.89312         6.43989         6.53153
   C       -0.42863         6.34240         6.15422
   C       -1.57736         6.23851         5.76234
   C       -2.88601         6.13370         5.33986
   S       -3.48314         7.10491         4.02333
   C       -5.05880         6.37573         4.17416
   C       -5.08880         5.43780         5.19383
   C       -3.87280         5.30614         5.85050
   C       -6.09304         6.75107         3.34025
   C       -6.98611         7.10224         2.59017
   C       -7.99800         7.48823         1.73356
   C       -7.89770         8.56296         0.90475
   C       -8.95948         8.92916         0.03994
   N      -10.13275         8.30436         0.09847
   C      -10.94807         8.95712        -0.74551
   C      -10.25618        10.08638        -1.38391
   C      -11.15981        10.80681        -2.29610
   O      -10.92516        11.78080        -2.97657
   C      -12.41524        10.04163        -2.16495
   C      -12.24168         8.92517        -1.21221
   N      -13.38636         8.20976        -1.09862
   C      -14.23730         8.79656        -1.90666
   C      -13.69566         9.94181        -2.60728
   C       -8.96577        10.06006        -0.92488
   C       -7.91480        10.94510        -1.30850
   C       -6.58848        10.68948        -1.24731
   C       -5.63109        11.61770        -1.63920
   C       -4.76646        12.41464        -1.94580
   C       -3.79950        13.34293        -2.28923
   S       -4.22884        14.85463        -3.03897
   C       -2.55155        15.33407        -3.07677
   C       -1.73374        14.35886        -2.53274
   C       -2.43329        13.24034        -2.09498
   C       -2.16875        16.55041        -3.60560
   C       -1.85009        17.62746        -4.07544
   C       -1.44906        18.83855        -4.60674
   C       -2.28824        19.68354        -5.26647
   C       -1.82396        20.90716        -5.79605
   C       -2.58149        21.79484        -6.50867
   C       -2.13878        23.05685        -7.06982
   C       -0.90169        23.63492        -6.93290
   C       -0.53886        24.87377        -7.50116
   N       -0.17317        25.87244        -7.93429
   C        0.18354        23.10061        -6.20883
   N        1.11426        22.73959        -5.63990
   C       -3.25788        23.63189        -7.80932
   C       -4.37895        22.76256        -7.68859
   C       -4.00955        21.59613        -6.86707
   O       -4.73280        20.67075        -6.56109
   C       -5.57594        23.03971        -8.28257
   C       -5.71044        24.22308        -9.04274
   C       -4.59401        25.09879        -9.16925
   C       -3.36697        24.78512        -8.54087
   C       -4.73785        26.27634        -9.93101
   C       -5.92611        26.57556       -10.53981
   C       -7.02461        25.71199       -10.41511
   C       -6.91914        24.56103        -9.68221
   H        5.49928         4.64709         8.38728
   H        1.39273         2.62613        10.36754
   H        2.76154         1.05928        11.60397
   H        4.97382         0.16373        12.21085
   H        7.01790         1.14144        11.24515
   H        6.86622         3.02625         9.66627
   H        1.52603         7.06140         5.90340
   H       -5.97757         4.88555         5.44103
   H       -3.69359         4.64399         6.67811
   H       -8.90843         6.90290         1.72013
   H       -7.00762         9.17376         0.92458
   H      -15.24142         8.42092        -2.00229
   H      -14.22705        10.55167        -3.31084
   H       -8.24504        11.88280        -1.73854
   H       -6.20686         9.73281        -0.91450
   H       -0.66636        14.47287        -2.46812
   H       -1.97843        12.37629        -1.64440
   H       -0.40371        19.09959        -4.48025
   H       -3.32695        19.42001        -5.39952
   H       -0.78039        21.13875        -5.62181
   H       -6.41018        22.36234        -8.17494
   H       -2.54139        25.46866        -8.65887
   H       -3.88909        26.93804       -10.02396
   H       -6.02618        27.47982       -11.12137
   H       -7.95472        25.96325       -10.90276
   H       -7.76153        23.89212        -9.58257
*
