# ORCA input file
# SCF done       -235.431249506868          0.000531079260
! CAM-B3LYP def2-SVP def2/J RIJCOSX Grid4 TightSCF
%maxcore 5000
%tddft
    Mode sTDDFT
    Ethresh 5.0
    maxcore 5000
end

%pal
  nprocs 6
  end
* xyz 0 1
   C        2.47519        -1.54332         1.28525
   C        1.30168        -0.91951         0.68691
   C        0.91862        -1.27130        -0.60927
   C       -0.19620        -0.71656        -1.22569
   C       -0.97555         0.20650        -0.53418
   C       -0.63437         0.55169         0.77137
   C        0.48599        -0.01197         1.36684
   F        0.75581         0.30338         2.63678
   F       -1.38949         1.41688         1.44913
   F       -2.04643         0.74689        -1.11121
   F       -0.52345        -1.06688        -2.46930
   F        1.65873        -2.15650        -1.28194
   C        3.41758        -0.90214         2.00226
   C        4.51767        -1.64332         2.64476
   C        5.84076        -1.20781         2.54862
   C        6.88321        -1.88949         3.16613
   C        6.61564        -3.03799         3.90649
   C        5.30493        -3.49580         4.01309
   C        4.27703        -2.80353         3.38213
   F        3.02849        -3.25778         3.51146
   F        5.03864        -4.59451         4.71730
   F        7.60522        -3.69529         4.50377
   F        8.13429        -1.44867         3.04864
   F        6.12996        -0.12400         1.82536
   C        3.43039         0.53927         2.15372
   S        3.96114         1.33623         3.61918
   C        3.56207         2.83162         2.78539
   N        3.10691         2.62401         1.58156
   N        3.03058         1.36967         1.23874
   C        3.72606         4.09865         3.40700
   C        3.50669         5.26017         2.74517
   C        3.65105         6.52707         3.36912
   N        3.47594         7.72639         2.71999
   C        3.10077         7.91262         1.33842
   C        1.60171         7.71946         1.12479
   C        3.66846         8.82194         3.57718
   O        3.57506         9.98016         3.22071
   C        3.99205         8.22542         4.85527
   C        3.97967         6.81624         4.69103
   C        4.30110         6.21797         5.96755
   O        4.41364         5.06078         6.32134
   N        4.47530         7.31310         6.83078
   C        4.86146         7.12043         8.20793
   C        6.35310         7.36660         8.42053
   C        4.29973         8.51307         6.18199
   C        4.40802         9.77754         6.82375
   C        4.27545        10.94293         6.15091
   C        4.38382        12.24941         6.73693
   C        4.36782        12.52870         8.11277
   N        4.51395        13.74230         8.59190
   C        4.69188        14.73822         7.72430
   N        4.63936        14.60154         6.40003
   C        4.48873        13.38964         5.92055
   C        4.87412        16.07504         8.29267
   C        4.66565        16.15429         9.75793
   C        3.60713        16.87689        10.29877
   C        3.37879        16.91916        11.67096
   C        4.22615        16.22598        12.53001
   C        5.29685        15.50448        12.00915
   C        5.50702        15.47311        10.63430
   F        6.55831        14.80612        10.16144
   F        6.11665        14.84728        12.83076
   F        4.01622        16.25578        13.84492
   F        2.35349        17.61512        12.16316
   F        2.77874        17.53636         9.48521
   C        5.14657        17.18735         7.59227
   C        5.45824        17.25002         6.16608
   C        4.80298        18.16712         5.34525
   C        5.07538        18.26085         3.98437
   C        6.04264        17.43601         3.41939
   C        6.73493        16.53516         4.22601
   C        6.44312        16.45187         5.58098
   F        7.15663        15.61652         6.33802
   F        7.67871        15.75672         3.69256
   F        6.31413        17.51372         2.11773
   F        4.41828        19.13739         3.22378
   F        3.87461        18.96584         5.87671
   H        2.58254        -2.60138         1.09042
   H        4.03317         4.10048         4.44365
   H        3.21431         5.21842         1.70645
   H        3.67528         7.22717         0.71002
   H        3.37732         8.94019         1.08604
   H        1.29249         6.71496         1.40434
   H        1.35746         7.88197         0.07887
   H        1.04541         8.43424         1.72620
   H        4.62520         6.07885         8.44316
   H        4.26161         7.76950         8.85208
   H        6.93271         6.68227         7.80603
   H        6.60836         7.19755         9.46287
   H        6.62558         8.38540         8.15355
   H        4.61592         9.77798         7.88382
   H        4.09809        10.91955         5.08325
   H        4.21162        11.75553         8.85363
   H        4.45205        13.30270         4.84181
   H        5.13610        18.14289         8.10119
*
