# ORCA input file
# SCF done       -222.084444997375          0.000416240911
! CAM-B3LYP def2-SVP def2/J RIJCOSX Grid4 TightSCF
%maxcore 5000
%tddft
    Mode sTDDFT
    Ethresh 5.0
    maxcore 5000
end

%pal
  nprocs 6
  end
* xyz 0 1
   C       -4.99075        -1.90647        -3.85455
   C       -5.07177        -0.86288        -2.80389
   O       -5.47636        -0.95450        -1.66542
   C       -4.47712         0.33546        -3.42669
   C       -4.17371         0.08589        -4.77994
   C       -4.63925        -1.26120        -5.11232
   C       -4.94572        -1.78547        -6.34280
   C       -4.53204        -1.28242        -7.66892
   O       -3.60944        -0.54134        -7.93783
   C       -5.40608        -1.95327        -8.65944
   C       -6.24615        -2.85751        -8.00553
   C       -5.95981        -2.85271        -6.55335
   O       -6.51422        -3.55231        -5.73180
   C       -7.16486        -3.61469        -8.70872
   C       -7.22277        -3.45265       -10.08672
   C       -6.38553        -2.55618       -10.73767
   C       -5.46278        -1.79520       -10.03133
   C       -3.57570         1.08526        -5.53200
   C       -3.30765         2.30705        -4.92766
   C       -3.62424         2.54722        -3.59867
   C       -4.21447         1.55345        -2.83074
   C       -4.96350        -3.25933        -3.68851
   C       -5.36841        -4.03801        -2.57733
   S       -4.92539        -5.72669        -2.56246
   C       -5.79257        -6.01430        -1.09266
   C       -6.40198        -4.82740        -0.65070
   C       -6.16058        -3.73128        -1.48653
   C       -7.17864        -4.70852         0.51430
   N       -7.81692        -4.58264         1.46015
   C       -5.80031        -7.31653        -0.54378
   C       -6.52530        -7.70564         0.54257
   C       -6.50281        -9.02795         1.03624
   N       -7.25672        -9.45264         2.10365
   C       -8.12370        -8.64054         2.92522
   C       -7.33717        -7.79893         3.92637
   C       -7.06365       -10.81674         2.37565
   O       -7.63427       -11.41134         3.26860
   C       -6.10490       -11.24982         1.38009
   C       -5.78111       -10.13644         0.57684
   C       -4.82183       -10.56687        -0.41934
   O       -4.26779        -9.97184        -1.32310
   N       -4.62628       -11.92769        -0.14802
   C       -3.69216       -12.71710        -0.91569
   C       -2.36953       -12.91163        -0.17907
   C       -5.38133       -12.35924         0.92017
   C       -5.38920       -13.68568         1.38914
   C       -6.18808       -14.10416         2.41697
   C       -6.23220       -15.43138         2.89342
   C       -5.46133       -16.52330         2.52591
   C       -5.87911       -17.66121         3.25715
   C       -6.98436       -17.20948         4.12468
   C       -7.17425       -15.88236         3.90753
   C       -7.71427       -17.99178         5.02609
   N       -8.33416       -18.60792         5.77173
   C       -5.35551       -18.93854         3.19607
   C       -5.77716       -20.08603         3.91309
   C       -4.94581       -21.14571         3.60638
   C       -3.97004       -20.67682         2.63643
   C       -4.19487       -19.35968         2.38832
   C       -3.41650       -18.55559         1.55263
   N       -2.75198       -17.91292         0.86875
   C       -4.85759       -22.42601         4.21090
   C       -5.61103       -22.85732         5.25266
   C       -5.32572       -24.03006         6.01353
   C       -4.10270       -24.52148         6.33479
   C       -3.98141       -25.91218         6.85217
   O       -4.86422       -26.60134         7.30689
   C       -2.57557       -26.27809         6.60214
   C       -1.87213       -25.17027         6.08163
   C       -2.76026       -24.01001         6.06426
   C       -2.44325       -22.67942         5.97854
   C       -1.31970       -22.04768         5.25882
   O       -0.35166       -22.56613         4.74360
   C       -1.67179       -20.60888         5.15367
   C       -2.83269       -20.34300         5.88452
   C       -3.31805       -21.59703         6.50245
   O       -4.17882       -21.69719         7.34700
   C       -3.37717       -19.07310         5.92054
   C       -2.74999       -18.07517         5.18610
   C       -1.59782       -18.33903         4.45625
   C       -1.04053       -19.61063         4.43417
   C       -0.52407       -25.30711         5.77971
   C        0.08668       -26.53532         5.99139
   C       -0.61377       -27.61830         6.50465
   C       -1.96003       -27.49642         6.81630
   H       -7.80835        -4.31094        -8.19328
   H       -7.92767        -4.03413       -10.66223
   H       -6.45397        -2.44999       -11.81018
   H       -4.80903        -1.09523       -10.52851
   H       -3.30265         0.91741        -6.56049
   H       -2.83794         3.08592        -5.50988
   H       -3.40594         3.50901        -3.15927
   H       -4.46851         1.71243        -1.79385
   H       -4.53931        -3.84018        -4.49863
   H       -6.54857        -2.74696        -1.29844
   H       -5.18365        -8.04671        -1.05320
   H       -7.15860        -6.99421         1.04890
   H       -8.77103        -9.34006         3.46140
   H       -8.74221        -8.00313         2.28805
   H       -6.74306        -8.44289         4.57048
   H       -8.02639        -7.22897         4.54233
   H       -6.67353        -7.10359         3.41792
   H       -3.51829       -12.16182        -1.84160
   H       -4.14489       -13.68110        -1.16302
   H       -1.90861       -11.94695         0.01900
   H       -1.69357       -13.50201        -0.79093
   H       -2.52012       -13.42530         0.76763
   H       -4.74656       -14.39935         0.89485
   H       -6.84467       -13.39011         2.89676
   H       -4.66819       -16.52835         1.80558
   H       -7.89843       -15.24828         4.38462
   H       -6.60392       -20.10666         4.59421
   H       -3.18858       -21.28254         2.21476
   H       -4.06200       -23.06461         3.84501
   H       -6.48226       -22.29196         5.55580
   H       -6.17104       -24.58806         6.40431
   H       -4.27487       -18.87962         6.48761
   H       -3.16535       -17.07782         5.17843
   H       -1.13248       -17.54434         3.89279
   H       -0.14535       -19.82328         3.87036
   H        0.03784       -24.48306         5.37294
   H        1.13429       -26.64662         5.75372
   H       -0.10692       -28.55808         6.66530
   H       -2.52524       -28.32094         7.22314
*
