# ORCA input file
# SCF done       -214.222876000380          0.000761483927
! CAM-B3LYP def2-SVP def2/J RIJCOSX Grid4 TightSCF
%maxcore 5000
%tddft
    Mode sTDDFT
    Ethresh 5.0
    maxcore 5000
end

%pal
  nprocs 6
  end
* xyz 0 1
   C        2.95092         3.36602        -5.26852
   C        2.45122         4.46995        -5.88740
   S        2.93067         4.52749        -7.54387
   C        3.82354         3.03082        -7.40613
  Cl        4.65237         2.37094        -8.72709
   C        3.73790         2.54150        -6.13639
   C        4.22511         1.36807        -5.40627
   O        4.84347         0.42473        -5.84126
   C        3.70685         1.54582        -4.01260
   C        2.92222         2.77009        -3.94810
   C        2.30645         3.32112        -2.85598
   C        1.59223         4.53466        -2.95309
   N        1.00473         5.51746        -3.01862
   C        2.31704         2.79241        -1.54947
   N        2.30106         2.42361        -0.46261
   C        3.84364         0.62788        -3.01559
   C        4.71149        -0.49701        -2.99705
   C        4.48484        -1.64737        -2.27287
   C        5.55394        -2.56483        -2.50645
   C        6.51007        -1.86285        -3.37741
   C        6.00669        -0.63325        -3.65890
   C        7.78304        -2.31076        -3.75776
   N        8.84900        -2.62360        -4.04691
   C        5.68946        -3.84145        -2.00826
   C        6.71288        -4.77641        -2.31623
   C        6.55524        -5.90474        -1.52894
   C        5.37238        -5.70351        -0.70281
   C        4.83286        -4.49277        -1.00170
   C        3.66793        -3.97340        -0.42415
   N        2.70617        -3.58137         0.06537
   C        7.43492        -7.01349        -1.58867
   N        7.62652        -7.99467        -0.64881
   C        7.04438        -8.10068         0.67000
   C        7.48519        -6.96612         1.58861
   C        8.63692        -8.89539        -1.03713
   O        8.99152        -9.83744        -0.35679
   C        9.05906        -8.43467        -2.34134
   C        8.30955        -7.28837        -2.65228
   C        8.65523        -6.87832        -4.00497
   O        8.24325        -5.99093        -4.71381
   N        9.62747        -7.81575        -4.40859
   C       10.27390        -7.69704        -5.69651
   C       11.66021        -7.06967        -5.58798
   C        9.89410        -8.73843        -3.43457
   C       10.85474        -9.76008        -3.57588
   C       11.15785       -10.62997        -2.56436
   C       12.20816       -11.57380        -2.52361
   C       13.46738       -11.55532        -3.12867
   N       14.01005       -10.71499        -4.12137
   O       13.26836       -10.16883        -4.92414
   O       15.22139       -10.59703        -4.13681
   C       14.33185       -12.49067        -2.45933
   C       13.62228       -13.15846        -1.51912
   C       12.25788       -12.70304        -1.55607
   C       11.19729       -13.32035        -0.93757
   C        9.82639       -12.88436        -0.82556
   C        9.21167       -13.62519         0.12213
   C       10.13899       -14.61734         0.62092
   N        9.71328       -15.60835         1.53014
   O       10.54857       -16.27753         2.11472
   O        8.51162       -15.73630         1.67656
   C       11.33178       -14.51435        -0.06723
   C       12.40550       -15.45522        -0.14237
   C       12.99939       -16.08019         0.90115
   C       14.00378       -17.07203         0.73949
   C       14.87045       -17.48264         1.70222
   C       15.57843       -18.79816         1.58746
   O       15.68431       -19.47210         0.59300
   C       16.04760       -19.06935         2.95218
   C       16.66909       -20.08648         3.61386
   S       16.90868       -19.66800         5.29462
   C       16.17852       -18.11900         5.08131
   C       15.76820       -17.94321         3.79741
   C       15.15628       -16.89961         2.99950
   C       15.07354       -15.57710         3.34778
   C       15.42485       -15.13475         4.64058
   N       15.69728       -14.77109         5.69361
   C       14.76599       -14.54498         2.43920
   N       14.58394       -13.67899         1.70789
  Cl       17.17851       -21.57821         2.99614
   H        1.83329         5.25128        -5.49143
   H        3.21651         0.72903        -2.13726
   H        3.61430        -1.85571        -1.68100
   H        6.49881         0.13349        -4.22383
   H        7.48247        -4.62144        -3.04561
   H        4.95729        -6.40585        -0.00626
   H        7.40073        -9.05551         1.06825
   H        5.95564        -8.14940         0.59258
   H        8.56842        -6.96220         1.68350
   H        7.05192        -7.10728         2.57469
   H        7.16747        -5.99906         1.20492
   H        9.62424        -7.05182        -6.29431
   H       10.33220        -8.68092        -6.16805
   H       11.59940        -6.11291        -5.07513
   H       12.05736        -6.90356        -6.58485
   H       12.34547        -7.72084        -5.05223
   H       11.36721        -9.83070        -4.52185
   H       10.57842       -10.55838        -1.65384
   H       15.37376       -12.59575        -2.69605
   H       14.01328       -13.87253        -0.82341
   H        9.37246       -12.08060        -1.36430
   H        8.20112       -13.53922         0.47272
   H       12.77228       -15.65323        -1.14369
   H       12.70992       -15.82524         1.90919
   H       14.03955       -17.61311        -0.20013
   H       16.09353       -17.45419         5.91811
*
