# ORCA input file
# SCF done       -207.621634120594          0.000409533080
! CAM-B3LYP def2-SVP def2/J RIJCOSX Grid4 TightSCF
%maxcore 5000
%tddft
    Mode sTDDFT
    Ethresh 5.0
    maxcore 5000
end

%pal
  nprocs 6
  end
* xyz 0 1
   C        3.45510         2.32282        -2.22388
   C        4.09723         3.52905        -2.14650
   C        4.83912         4.09472        -3.20467
   N        5.44908         4.60125        -4.03419
   C        4.18648         4.29027        -0.96226
   N        4.33230         4.90534        -0.00418
   C        3.60271         1.35843        -3.30858
   C        3.24388         0.06698        -2.82034
   C        3.33654        -1.04684        -3.60497
   C        3.78878        -0.91546        -4.93701
   C        4.12853         0.37561        -5.43654
   C        4.02877         1.51120        -4.60020
   C        4.57072         0.49249        -6.76995
   C        4.67706        -0.61118        -7.57169
   C        4.34414        -1.88183        -7.07865
   C        3.90955        -2.03070        -5.78963
   C        2.77811         0.18112        -1.42814
   O        2.43914        -0.69891        -0.67338
   C        2.74092         1.65130        -1.15384
   C        1.97883         2.11447        -0.12849
   C        1.50327         3.43347         0.06576
   O        1.60532         4.37039        -0.89052
   C        1.07484         5.52468        -0.42758
   C        0.58962         5.32915         0.85797
   C        0.85065         3.98692         1.17727
   C        0.53417         3.32300         2.37221
   N        0.25848         2.78683         3.34665
   C        1.15505         6.65296        -1.27959
   C        0.76331         7.91188        -0.95438
   C        0.94899         8.99654        -1.84415
   N        0.61326        10.29602        -1.55680
   C        0.07043        10.79618        -0.31674
   C        1.14990        10.94820         0.75210
   C        0.93824        11.17073        -2.61003
   O        0.72735        12.36522        -2.57465
   C        1.51169        10.31166        -3.62441
   C        1.49808         8.98907        -3.13131
   C        2.06492         8.12750        -4.14891
   O        2.25168         6.92658        -4.18507
   N        2.39729         8.99759        -5.19533
   C        2.98107         8.50083        -6.41858
   C        1.94149         8.35992        -7.52779
   C        2.07481        10.30562        -4.90774
   C        2.30955        11.38603        -5.78036
   C        2.01910        12.67892        -5.44434
   C        2.23778        13.79773        -6.27386
   C        2.01161        15.11541        -5.91050
   C        2.32770        15.96694        -6.99851
   C        2.77509        15.08108        -8.09201
   C        2.72829        13.79948        -7.64643
   C        3.21658        15.46188        -9.36478
   N        3.59565        15.72178       -10.41740
   C        2.24692        17.34463        -7.04587
   C        2.46991        18.19200        -8.16386
   C        2.29467        19.50926        -7.77790
   C        1.96063        19.51317        -6.36037
   C        1.91208        18.23143        -5.91508
   C        1.62135        17.85462        -4.59906
   N        1.37818        17.59355        -3.50720
   C        2.39535        20.69090        -8.54875
   C        2.57131        20.73429        -9.90082
   C        2.65606        21.96356       -10.58800
   C        2.74833        22.09847       -11.94630
   C        2.86123        23.33680       -12.69246
   C        2.95615        24.60536       -12.17722
   C        3.07270        25.77180       -12.96209
   N        3.16881        26.76113       -13.53682
   C        2.95920        24.94251       -10.80803
   N        2.97022        25.30407        -9.71764
   C        2.87408        23.00188       -14.11275
   C        2.78849        21.58700       -14.24881
   C        2.71041        20.96830       -12.91469
   O        2.61643        19.78481       -12.66989
   C        2.77665        20.97682       -15.46962
   C        2.85026        21.76979       -16.63647
   C        2.93541        23.18645       -16.51041
   C        2.94645        23.78940       -15.23164
   C        3.00646        23.96894       -17.68097
   C        2.99345        23.38214       -18.91703
   C        2.90906        21.98715       -19.03981
   C        2.83938        21.19807       -17.92377
   H        3.06856        -2.01703        -3.21390
   H        4.28129         2.47915        -5.00423
   H        4.82923         1.47226        -7.14377
   H        5.01936        -0.51156        -8.59083
   H        4.43370        -2.74178        -7.72526
   H        3.65185        -3.00631        -5.40436
   H        1.62977         1.37826         0.58707
   H        0.11263         6.05088         1.48863
   H        1.60419         6.46202        -2.24594
   H        0.31890         8.11106         0.00935
   H       -0.72987        10.13401         0.02454
   H       -0.35657        11.77633        -0.54669
   H        1.63231         9.99566         0.96054
   H        0.70821        11.32707         1.66938
   H        1.90669        11.65225         0.41552
   H        3.39741         7.51853        -6.17815
   H        3.79657         9.16030        -6.72751
   H        1.16603         7.66156        -7.22280
   H        2.41476         7.98090        -8.42927
   H        1.47465         9.31662        -7.75223
   H        2.75026        11.16666        -6.74186
   H        1.59353        12.88592        -4.47104
   H        1.64491        15.43880        -4.95605
   H        3.00256        12.93029        -8.21475
   H        2.72896        17.84875        -9.14595
   H        1.77716        20.39863        -5.77971
   H        2.30294        21.62622        -8.00756
   H        2.63392        19.82185       -10.47414
   H        2.63979        22.85742        -9.97675
   H        2.71097        19.90139       -15.54269
   H        3.00977        24.86420       -15.17265
   H        3.07146        25.04255       -17.58141
   H        3.04806        23.99014       -19.80763
   H        2.89947        21.54103       -20.02307
   H        2.77434        20.12342       -18.01163
*
