# ORCA input file
# SCF done       -207.379762966923          0.000724307056
! CAM-B3LYP def2-SVP def2/J RIJCOSX Grid4 TightSCF
%maxcore 5000
%tddft
    Mode sTDDFT
    Ethresh 5.0
    maxcore 5000
end

%pal
  nprocs 6
  end
* xyz 0 1
   C       -1.65318         3.06025        -1.98985
   C       -0.82062         4.01105        -2.51816
   C       -0.98916         4.58427        -3.79366
   N       -1.10956         5.11899        -4.80253
   C        0.33384         4.47756        -1.85382
   N        1.30368         4.84641        -1.36293
   C       -2.65983         2.30571        -2.72406
   C       -2.92208         1.09627        -2.01436
   C       -3.79677         0.16303        -2.49156
   C       -4.46593         0.40568        -3.71253
   C       -4.21705         1.61854        -4.41900
   C       -3.30031         2.56431        -3.90584
   C       -4.89594         1.84901        -5.63283
   C       -5.77700         0.92678        -6.12824
   C       -6.02097        -0.26698        -5.43269
   C       -5.37893        -0.52225        -4.25133
   C       -2.13418         1.07493        -0.76743
   O       -2.05596         0.19378         0.05333
   C       -1.50463         2.42953        -0.69245
   C       -1.07032         2.91083         0.49965
   C       -0.85688         4.25936         0.88166
   S       -1.58157         5.63598         0.06813
   C       -0.14990         4.71566         1.97169
   C        0.67482         4.11725         3.04077
   O        0.91511         2.96142         3.27730
   N        1.14308         5.20289         3.76621
   C        1.98774         5.06540         4.93370
   C        1.15733         4.97857         6.20938
   C        0.70947         6.44082         3.28997
   O        1.01070         7.50314         3.76489
   C       -0.13916         6.11404         2.12852
   C       -0.86572         6.79910         1.17606
   C       -1.04923         8.18989         1.00550
   C       -1.63287         8.69821        -0.11240
   C       -1.84224        10.07259        -0.36097
   N       -2.32176        10.55622        -1.55946
   C       -2.57805         9.78710        -2.75406
   C       -1.28739         9.36010        -3.44877
   C       -2.46923        11.94976        -1.54159
   O       -2.87981        12.59793        -2.48647
   C       -2.05105        12.33770        -0.21264
   C       -1.66619        11.16736         0.48264
   C       -1.27760        11.54994         1.82438
   O       -0.89773        10.90511         2.77665
   N       -1.45181        12.94811         1.84754
   C       -1.11771        13.72230         3.01868
   C        0.23416        14.41673         2.87513
   C       -1.91261        13.43060         0.64683
   C       -2.20863        14.79124         0.39966
   C       -2.69055        15.22519        -0.79541
   C       -3.02986        16.56774        -1.07748
   S       -2.83281        17.86000         0.08057
   C       -3.47422        19.02853        -1.03023
   C       -3.81771        18.41601        -2.24288
   C       -3.56314        17.04134        -2.26304
   C       -4.35996        19.13073        -3.32631
   N       -4.80085        19.71099        -4.21126
   C       -3.61070        20.39574        -0.70914
   C       -3.21845        20.93869         0.47602
   C       -3.36669        22.31283         0.76062
   C       -2.94756        22.91352         1.91482
   C       -3.06369        24.31971         2.25542
   C       -3.73645        25.28494         1.55115
   C       -3.81862        26.63745         1.94461
   N       -3.92220        27.75035         2.20699
   C       -4.45837        25.08020         0.35664
   N       -5.07336        24.99780        -0.60979
   C       -2.35758        24.53189         3.51442
   C       -1.86435        23.27869         3.97755
   C       -2.22880        22.22258         3.01942
   O       -1.98017        21.03828         3.11940
   C       -1.15828        23.16501         5.14052
   C       -0.90213        24.32337         5.90727
   C       -1.38805        25.58204         5.44917
   C       -2.12033        25.66765         4.24285
   C       -1.12259        26.73312         6.21853
   C       -0.41097        26.64710         7.38412
   C        0.06676        25.40719         7.83436
   C       -0.17411        24.26995         7.11208
   H       -3.97639        -0.75079        -1.94508
   H       -3.13360         3.47877        -4.45405
   H       -4.70243         2.76801        -6.16637
   H       -6.29079         1.11186        -7.05958
   H       -6.72012        -0.98314        -5.83758
   H       -5.56260        -1.43977        -3.71186
   H       -0.92899         2.18272         1.29332
   H        2.64421         5.93811         4.96642
   H        2.58030         4.15719         4.80131
   H        0.56093         5.87985         6.33090
   H        1.81407         4.87522         7.06833
   H        0.49523         4.11658         6.16963
   H       -0.67753         8.83374         1.79274
   H       -1.95470         8.00581        -0.88039
   H       -3.15265        10.44283        -3.41413
   H       -3.19145         8.91600        -2.50524
   H       -0.71885        10.23651        -3.74975
   H       -1.52175         8.77586        -4.33408
   H       -0.66731         8.75620        -2.78988
   H       -1.07745        13.01045         3.84791
   H       -1.91039        14.44957         3.21571
   H        1.01668        13.67718         2.72497
   H        0.45546        14.97805         3.77845
   H        0.23582        15.10064         2.02921
   H       -2.05719        15.50217         1.20077
   H       -2.84570        14.51751        -1.60044
   H       -3.76209        16.40615        -3.10776
   H       -4.05328        21.02404        -1.47372
   H       -2.77036        20.30772         1.23146
   H       -3.83413        22.91607        -0.00719
   H       -0.79646        22.20202         5.46940
   H       -2.47116        26.63601         3.92382
   H       -1.49291        27.68528         5.86779
   H       -0.21193        27.53460         7.96584
   H        0.62686        25.35778         8.75617
   H        0.19132        23.31249         7.45380
*
