# ORCA input file
# SCF done       -187.334377982180          0.000550823363
! CAM-B3LYP def2-SVP def2/J RIJCOSX Grid4 TightSCF
%maxcore 5000
%tddft
    Mode sTDDFT
    Ethresh 5.0
    maxcore 5000
end

%pal
  nprocs 6
  end
* xyz 0 1
   C       -1.65265        -0.75428        -0.00125
   C       -1.44086        -1.46052        -1.15762
   C       -1.06294        -2.81934        -1.19483
   N       -0.75409        -3.92025        -1.29916
   C       -1.56693        -0.95883        -2.46948
   N       -1.65059        -0.63145        -3.56769
   C       -1.52065        -1.29470         1.34877
   C       -1.83205        -0.26538         2.28265
   C       -1.79118        -0.47236         3.63107
   C       -1.43020        -1.74769         4.12016
   C       -1.12019        -2.78499         3.19435
   C       -1.17045        -2.53852         1.80244
   C       -0.76363        -4.05443         3.69235
   C       -0.71394        -4.28945         5.03971
   C       -1.01777        -3.26674         5.95027
   C       -1.36858        -2.02267         5.50017
   C       -2.17680         0.96039         1.54989
   O       -2.50450         2.02823         2.04033
   C       -2.04756         0.63755         0.12217
   C       -2.25336         1.51056        -0.91345
   C       -2.63493         2.86294        -0.89634
   S       -2.99088         3.85268         0.49893
   C       -3.33043         5.23007        -0.49464
   C       -3.16924         4.92646        -1.85764
   C       -2.78304         3.60359        -2.06480
   C       -3.36046         5.81968        -2.92490
   N       -3.50558         6.52286        -3.82112
   C       -3.71094         6.43827         0.13990
   C       -3.96456         7.61269        -0.48869
   C       -4.34949         8.83346         0.13357
   C       -4.23001        10.10475        -0.44162
   C       -3.73715        10.38621        -1.81174
   C       -4.65669        11.11074         0.49104
   C       -5.08462        10.42420         1.63135
   C       -4.91219         8.99879         1.44595
   C       -5.36483         8.16954         2.44111
   C       -5.90691         8.76013         3.60236
   C       -5.98885        10.11810         3.70461
   O       -5.60039        10.94579         2.74379
   C       -4.67525        12.53178         0.42651
   C       -4.16197        13.34463        -0.53313
   C       -4.19409        14.75936        -0.47438
   C       -3.62063        15.61546        -1.39380
   C       -3.82066        16.95700        -0.98580
   C       -4.59111        16.88663         0.27669
   C       -4.80438        15.57940         0.56740
   C       -5.02975        17.95549         1.06517
   N       -5.40768        18.79744         1.74988
   C       -3.37096        18.10572        -1.60001
   C       -3.52857        19.44977        -1.14970
   C       -2.84045        20.29467        -1.99639
   C       -2.27844        19.49055        -3.06900
   C       -2.59210        18.18561        -2.84254
   C       -2.24615        17.12165        -3.68190
   N       -1.95735        16.26352        -4.38964
   C       -2.74339        21.70256        -1.83200
   C       -1.70276        22.49394        -2.21753
   C       -1.64840        23.94312        -2.15272
   C       -2.71389        24.78749        -1.97838
   C       -2.60905        26.19353        -1.94339
   N       -2.58712        27.34065        -1.90102
   C       -4.05759        24.37777        -1.84695
   N       -5.17399        24.12396        -1.75775
   C       -0.26956        24.35013        -2.39382
   C        0.50725        23.18661        -2.65950
   C       -0.34622        21.98992        -2.56640
   O        0.01248        20.83657        -2.66857
   C        1.84318        23.25586        -2.93092
   C        2.47695        24.51827        -2.95032
   C        1.70921        25.68718        -2.67741
   C        0.32704        25.58341        -2.39861
   C        2.35399        26.94080        -2.69159
   C        3.69146        27.03720        -2.96401
   C        4.44581        25.88568        -3.23438
   C        3.85136        24.65303        -3.22805
   H       -2.03081         0.32715         4.31647
   H       -0.92791        -3.34600         1.13047
   H       -0.53021        -4.83881         2.98745
   H       -0.43977        -5.26546         5.41110
   H       -0.97267        -3.46919         7.00993
   H       -1.60381        -1.23099         6.19659
   H       -2.10323         1.12933        -1.91626
   H       -2.61171         3.18354        -3.04131
   H       -3.75193         6.37845         1.21764
   H       -3.83209         7.65024        -1.55960
   H       -3.65946         9.47951        -2.40426
   H       -2.74944        10.84677        -1.77129
   H       -4.41220        11.07397        -2.31854
   H       -5.33628         7.09556         2.36153
   H       -6.25978         8.14437         4.41155
   H       -6.38693        10.63410         4.56534
   H       -5.13804        12.99157         1.29095
   H       -3.66312        12.93342        -1.39591
   H       -3.09163        15.31843        -2.27778
   H       -5.33733        15.20947         1.42351
   H       -4.04968        19.74431        -0.25922
   H       -1.74990        19.87309        -3.91985
   H       -3.57182        22.15923        -1.30283
   H        2.40907        22.35769        -3.12953
   H       -0.22493        26.48600        -2.18943
   H        1.76888        27.82472        -2.48407
   H        4.17593        28.00208        -2.97283
   H        5.50017        25.98012        -3.44724
   H        4.42679        23.76252        -3.43497
*
