# ORCA input file
# SCF done       -134.181857355168          0.000543662826
! CAM-B3LYP def2-SVP def2/J RIJCOSX Grid4 TightSCF
%maxcore 5000
%tddft
    Mode sTDDFT
    Ethresh 5.0
    maxcore 5000
end

%pal
  nprocs 6
  end
* xyz 0 1
   C       -0.73368        -1.38179         0.67953
   C        0.22828        -0.91798         1.57256
   C        0.62690         0.46088         1.58310
   N        1.54056         0.89095         2.47766
   C        2.05740         0.02042         3.29234
   C        1.68739        -1.34757         3.26439
   N        0.79272        -1.79934         2.43791
   C        0.05313         1.36938         0.66472
   C       -0.93275         0.88519        -0.22175
   C       -1.32255        -0.49325        -0.21357
   N       -2.26510        -0.93877        -1.08162
   C       -2.79180        -0.07937        -1.90187
   C       -2.41395         1.28509        -1.90724
   N       -1.51087         1.74076        -1.08903
   C        0.44680         2.74230         0.60801
   S       -0.33773         3.89493        -0.47028
   C        0.78217         5.07378         0.20183
   N        1.59042         4.55027         1.09744
   N        1.39820         3.28501         1.31044
   C        0.80968         6.42772        -0.18871
   S       -0.32134         7.04662        -1.33662
   C        0.34042         8.65059        -1.25957
   C        1.41743         8.69458        -0.35528
   C        1.68580         7.43533         0.25319
   C        2.73662         7.31117         1.17151
   C        3.50543         8.40643         1.49916
   C        4.60701         8.26694         2.44881
   C        4.64914         7.37491         3.43064
   C        3.23375         9.67326         0.89710
   C        4.05165        10.87376         1.26286
   C        2.21170         9.80087        -0.00721
   C       -0.17613         9.71158        -2.02743
   C       -1.23823         9.61934        -2.86938
   C       -1.70069        10.72299        -3.62664
   S       -3.09932        10.62925        -4.68502
   C       -2.76869        12.32066        -5.04707
   N       -1.74155        12.77788        -4.39060
   N       -1.15767        11.91795        -3.61357
   C       -3.57018        13.07889        -5.95772
   C       -4.79911        12.56365        -6.42230
   C       -5.64309        13.33706        -7.28426
   N       -6.82484        12.82875        -7.71511
   C       -7.15275        11.63451        -7.32172
   C       -6.32085        10.86876        -6.46927
   N       -5.18287        11.32837        -6.03835
   C       -5.26128        14.61511        -7.67858
   C       -4.03953        15.12665        -7.25160
   C       -3.17182        14.35860        -6.40479
   N       -1.96363        14.84863        -6.05744
   C       -1.65034        16.04492        -6.45563
   C       -2.53295        16.83129        -7.23862
   N       -3.68018        16.37641        -7.64347
   H       -1.01583        -2.42176         0.67892
   H        2.78113         0.39312         4.00439
   H        2.13014        -2.06455         3.94323
   H       -3.54076        -0.45324        -2.58698
   H       -2.86104         1.99671        -2.58746
   H        2.93401         6.34004         1.59397
   H        5.43141         8.95589         2.32613
   H        3.84252         6.68671         3.61756
   H        5.49294         7.31349         4.09657
   H        5.08076        10.75480         0.92375
   H        4.06613        11.01466         2.34245
   H        3.64318        11.76848         0.80006
   H        2.00853        10.76032        -0.45834
   H        0.31192        10.67175        -1.93906
   H       -1.76754         8.68430        -2.98799
   H       -8.09746        11.24509        -7.67674
   H       -6.59994         9.87515        -6.14648
   H       -5.90840        15.20705        -8.30470
   H       -0.67003        16.40770        -6.17796
   H       -2.26749        17.83267        -7.55132
*
