# ORCA input file
# SCF done       -194.092774806800          0.000966985635
! CAM-B3LYP def2-SVP def2/J RIJCOSX Grid4 TightSCF
%maxcore 5000
%tddft
    Mode sTDDFT
    Ethresh 5.0
    maxcore 5000
end

%pal
  nprocs 6
  end
* xyz 0 1
   C       -5.36768         1.28696         2.43161
   C       -5.13219         2.65508         2.34168
   C       -4.24871         3.16522         1.33878
   N       -4.00071         4.48594         1.27285
   C       -4.56771         5.27807         2.13824
   C       -5.44908         4.77086         3.12213
   N       -5.72599         3.50418         3.21498
   C       -3.61038         2.31637         0.40092
   C       -3.77597         0.92104         0.58476
   C       -4.68455         0.42429         1.57954
   N       -4.88644        -0.91116         1.70861
   C       -4.18740        -1.71328         0.96480
   C       -3.19948        -1.22636         0.07480
   N       -3.01896         0.04894        -0.11440
   C       -2.77784         2.91646        -0.59220
   S       -2.12147         4.48945        -0.27932
   C       -1.16605         4.48761        -1.73290
   C       -1.38159         3.30665        -2.46344
   C       -2.33848         2.43974        -1.83581
   C       -2.74999         1.28572        -2.52525
   C       -2.13811         0.92505        -3.69763
   N       -2.47788        -0.37041        -4.24412
   O       -3.63449        -0.71517        -4.16731
   O       -1.56269        -1.04236        -4.65920
   C       -1.09564         1.71567        -4.24372
   N       -0.51910         1.43367        -5.53590
   O       -1.25394         0.95686        -6.37119
   O        0.62823         1.77699        -5.71545
   C       -0.72729         2.88770        -3.63107
   C       -0.34558         5.59177        -2.04203
   S        0.40077         6.47846        -0.75480
   C        1.29218         7.49895        -1.84183
   C        0.92971         7.22826        -3.17817
   C       -0.00860         6.15983        -3.28884
   C       -0.56569         5.86817        -4.54111
   C       -0.18649         6.56061        -5.67183
   C       -0.84484         6.19209        -6.92855
   C       -1.31217         7.02831        -7.84388
   C        0.79617         7.58380        -5.57279
   C        1.28862         8.32215        -6.77841
   C        1.31209         7.91305        -4.34167
   C        2.20563         8.41246        -1.28308
   C        3.27712         8.97142        -1.91917
   C        4.16816         9.92247        -1.38105
   S        5.75166        10.05035        -2.08103
   C        6.24651        11.30622        -1.00200
   C        5.23533        11.57769        -0.07019
   C        4.03806        10.81733        -0.30001
   C        2.90986        11.05997         0.49397
   C        2.97462        11.95230         1.53772
   N        1.83371        12.03872         2.41492
   O        0.74424        11.83423         1.92521
   O        2.05436        12.23536         3.58861
   C        4.18448        12.63207         1.82138
   N        4.26166        13.67941         2.81837
   O        3.32959        14.44662         2.87154
   O        5.28719        13.76048         3.45265
   C        5.29382        12.43600         1.04175
   C        7.54162        11.88832        -1.17301
   C        7.85494        13.23386        -0.86579
   C        9.19512        13.72151        -1.02557
   N        9.49824        15.00046        -0.68785
   C        8.53569        15.77180        -0.28310
   C        7.19381        15.32076        -0.22928
   N        6.87440        14.08807        -0.49837
   C       10.20258        12.90641        -1.53247
   C        9.89352        11.60785        -1.92418
   C        8.56392        11.10369        -1.76110
   N        8.26458         9.85395        -2.16498
   C        9.20219         9.12962        -2.70575
   C       10.51761         9.62860        -2.86111
   N       10.85126        10.82469        -2.47824
   H       -6.04698         0.89423         3.16940
   H       -4.33895         6.33160         2.06396
   H       -5.92903         5.42912         3.83304
   H       -4.37535        -2.77258         1.07159
   H       -2.55447        -1.89566        -0.47751
   H       -3.53258         0.65781        -2.13675
   H        0.06355         3.47804        -4.06695
   H       -1.34991         5.13053        -4.61541
   H       -0.99396         5.12724        -7.05953
   H       -1.24557         8.09724        -7.74006
   H       -1.81681         6.66633        -8.72324
   H        0.68763         9.21507        -6.95195
   H        1.23576         7.69845        -7.66657
   H        2.31784         8.64140        -6.62882
   H        2.00071         8.73928        -4.27069
   H        2.07254         8.59762        -0.22647
   H        3.54494         8.60423        -2.89999
   H        1.97223        10.56184         0.30900
   H        6.19754        12.96873         1.28167
   H        8.79960        16.78301        -0.00586
   H        6.38326        15.98593         0.03500
   H       11.20356        13.28803        -1.64454
   H        8.93070         8.13217        -3.02152
   H       11.29618         9.02157        -3.30244
*
