# ORCA input file
# SCF done       -157.474454269313          0.000184249780
! CAM-B3LYP def2-SVP def2/J RIJCOSX Grid4 TightSCF
%maxcore 5000
%tddft
    Mode sTDDFT
    Ethresh 5.0
    maxcore 5000
end

%pal
  nprocs 6
  end
* xyz 0 1
   C       -1.46432        -0.34682        -0.69793
   C       -0.09546        -0.41680        -0.93396
   C        0.77093         0.63112        -0.48248
   N        2.11047         0.54131        -0.67935
   C        2.55833        -0.48759        -1.33309
   C        1.69474        -1.50157        -1.82172
   N        0.41394        -1.47799        -1.61188
   C        0.24864         1.76509         0.16037
   C       -1.13175         1.82309         0.39853
   C       -1.98829         0.75399        -0.02957
   N       -3.32560         0.81573         0.20266
   C       -3.78552         1.87075         0.80189
   C       -2.94093         2.94081         1.19997
   N       -1.65789         2.91634         1.00546
   C        1.13673         2.86250         0.56248
   C        2.03712         3.43360        -0.38809
   C        2.92755         4.40348         0.01467
   C        2.95643         4.84405         1.34828
   C        2.03586         4.29514         2.28554
   C        1.13382         3.30169         1.86131
   N        2.03130         4.70792         3.56935
   C        2.89825         5.62693         3.90258
   C        3.80776         6.17345         2.97373
   N        3.84094         5.79273         1.72492
   C        2.00164         3.02620        -1.77971
   S        0.51772         2.92396        -2.64847
   C        1.30277         2.47295        -4.13258
   C        2.68031         2.35095        -3.93289
   C        3.07543         2.68706        -2.59823
   C        4.42588         2.56227        -2.21872
   C        5.36544         2.12067        -3.11446
   C        6.76681         2.00058        -2.71238
   C        7.17477         1.66886        -1.49491
   C        4.96940         1.75857        -4.44106
   C        5.98569         1.21202        -5.39746
   C        3.66205         1.86604        -4.82384
   C        0.49418         2.30781        -5.29217
   C        0.91623         2.44356        -6.56676
   C        0.09370         2.26286        -7.73956
   C        0.53668         2.78381        -8.99500
   C       -0.25657         2.70291       -10.10891
   C       -1.50910         2.06409       -10.05589
   C       -1.94364         1.50554        -8.82024
   C       -1.13005         1.62299        -7.68517
   N       -3.13497         0.87146        -8.73378
   C       -3.85181         0.80405        -9.82265
   C       -3.42106         1.36183       -11.04424
   N       -2.27439         1.97822       -11.16197
   C        1.84946         3.43910        -9.13483
   C        3.04347         2.71060        -9.03944
   C        4.30919         3.35346        -9.24965
   N        5.45982         2.63449        -9.18061
   C        5.36320         1.36312        -8.93908
   C        4.11048         0.72752        -8.72881
   N        2.98986         1.38113        -8.76944
   C        4.36947         4.71134        -9.54358
   C        3.19098         5.44146        -9.64691
   C        1.92166         4.80323        -9.44667
   N        0.77306         5.51943        -9.54670
   C        0.87210         6.77862        -9.84349
   C        2.12800         7.40876       -10.05428
   N        3.24957         6.76424        -9.95349
   H       -2.11562        -1.13375        -1.04150
   H        3.62830        -0.53853        -1.48554
   H        2.08394        -2.34473        -2.37676
   H       -4.85148         1.90411         0.98439
   H       -3.34346         3.82074         1.68380
   H        3.59852         4.86944        -0.69040
   H        0.45928         2.87929         2.58850
   H        2.88865         5.95214         4.93445
   H        4.51879         6.93439         3.26761
   H        4.70922         2.80960        -1.20837
   H        7.49985         2.19717        -3.48325
   H        6.48274         1.43391        -0.70330
   H        8.22063         1.60674        -1.24718
   H        6.67664         1.99483        -5.71230
   H        5.49590         0.81751        -6.28457
   H        6.56500         0.41507        -4.93375
   H        3.36280         1.53567        -5.80680
   H       -0.55253         2.11960        -5.09192
   H        1.92946         2.76877        -6.74146
   H        0.06820         3.10961       -11.05409
   H       -1.49293         1.18448        -6.76941
   H       -4.80382         0.29503        -9.74603
   H       -4.03102         1.29688       -11.93557
   H        6.28762         0.80177        -8.89802
   H        4.04841        -0.33217        -8.51708
   H        5.32123         5.18930        -9.70831
   H       -0.05209         7.33579        -9.91945
   H        2.18892         8.46013       -10.30258
*
