# ORCA input file
# SCF done       -208.052389282290          0.000765319590
! CAM-B3LYP def2-SVP def2/J RIJCOSX Grid4 TightSCF
%maxcore 5000
%tddft
    Mode sTDDFT
    Ethresh 5.0
    maxcore 5000
end

%pal
  nprocs 6
  end
* xyz 0 1
   C        1.34949        -1.15852         2.97743
   C        0.17274        -0.92892         2.27090
   C       -0.11138         0.36391         1.71954
   N       -1.17417         0.53252         0.90495
   C       -1.99642        -0.46275         0.76066
   C       -1.79585        -1.69766         1.42872
   N       -0.72177        -1.93766         2.11624
   C        0.75288         1.44578         1.98007
   C        1.98011         1.17988         2.61867
   C        2.27328        -0.12697         3.12576
   N        3.44970        -0.35510         3.76036
   C        4.28189         0.63700         3.87222
   C        3.99929         1.92386         3.35159
   N        2.87542         2.18132         2.74779
   C        0.42288         2.77810         1.57939
   S        1.67793         3.87645         1.12474
   C        0.51579         5.06834         0.61208
   C       -0.77908         4.63845         0.85651
   C       -0.83042         3.34270         1.41944
   C       -2.10623         2.78769         1.90889
   O       -2.20063         2.01058         2.83968
   C       -3.27994         3.34754         1.20647
   C       -4.47177         2.63229         1.17552
   C       -5.58018         3.14679         0.52974
   C       -5.53612         4.40032        -0.07286
   C       -6.75370         4.98255        -0.72715
   C       -7.53503         5.83460         0.27608
   C       -4.35885         5.13414        -0.00223
   C       -3.22957         4.61643         0.61493
   C       -2.00398         5.44361         0.69322
   O       -2.02243         6.65623         0.68794
   C        0.87628         6.26039        -0.08194
   N        1.98105         7.03624         0.15480
   C        2.97976         6.85791         1.17978
   C        4.21493         6.14059         0.64131
   C        2.03589         8.14534        -0.72172
   O        2.90910         8.98653        -0.67733
   C        0.87607         7.98228        -1.56469
   C        0.18540         6.82066        -1.14762
   C       -0.95539         6.64944        -2.01885
   O       -1.81390         5.79310        -2.07855
   N       -0.89693         7.75299        -2.89502
   C       -1.89162         7.89763        -3.93047
   C       -1.36425         7.46642        -5.29653
   C        0.19205         8.55523        -2.63599
   C        0.61440         9.76026        -3.24657
   C        0.05686        10.47612        -4.25750
   C        0.60307        11.69891        -4.71593
   S        2.09177        12.34567        -4.07868
   C        1.98692        13.72891        -5.10857
   C        0.82109        13.72870        -5.85772
   C        0.04951        12.55618        -5.66929
   C       -1.16192        12.29057        -6.44529
   O       -1.87194        11.30911        -6.28529
   C       -1.44826        13.29077        -7.49792
   C       -2.45586        13.02292        -8.42115
   C       -2.76993        13.93419        -9.41015
   C       -2.10104        15.15181        -9.49327
   C       -2.41407        16.13494       -10.58196
   C       -1.44455        15.95757       -11.75275
   C       -1.10529        15.42595        -8.56558
   C       -0.76429        14.51057        -7.57844
   C        0.28968        14.87499        -6.60580
   O        0.60347        16.03230        -6.39461
   C        3.06992        14.66233        -5.17034
   C        3.38294        15.34825        -6.36094
   C        4.38250        16.37648        -6.35443
   N        4.59892        17.11356        -7.47299
   C        3.90767        16.82694        -8.53314
   C        3.02869        15.71533        -8.57413
   N        2.78083        14.99978        -7.51837
   C        5.12688        16.63889        -5.20814
   C        4.91098        15.87931        -4.06136
   C        3.88123        14.88510        -4.04012
   N        3.66589        14.14678        -2.93099
   C        4.42176        14.36182        -1.89462
   C        5.43561        15.35252        -1.91138
   N        5.67140        16.08732        -2.95706
   H        1.54097        -2.12573         3.41197
   H       -2.82207        -0.31779         0.07704
   H       -2.51072        -2.50459         1.33974
   H        5.21563         0.43546         4.37973
   H        4.70931         2.73528         3.43250
   H       -4.50698         1.66696         1.65882
   H       -6.49486         2.57201         0.49519
   H       -7.39622         4.18222        -1.09915
   H       -6.45409         5.60561        -1.57134
   H       -7.85385         5.22837         1.12108
   H       -8.41555         6.26375        -0.19583
   H       -6.91155         6.64274         0.65072
   H       -4.29331         6.11739        -0.44309
   H        2.54381         6.30668         2.01543
   H        3.26525         7.85908         1.51688
   H        3.95667         5.15143         0.27119
   H        4.95214         6.03697         1.43216
   H        4.64998         6.72021        -0.16886
   H       -2.25449         8.92735        -3.95442
   H       -2.71823         7.24265        -3.63889
   H       -0.47251         8.02677        -5.56627
   H       -2.12448         7.63957        -6.05294
   H       -1.11725         6.40754        -5.28108
   H        1.52031        10.15061        -2.79427
   H       -0.84392        10.16958        -4.76579
   H       -2.98542        12.08504        -8.34074
   H       -3.55099        13.70624       -10.12122
   H       -2.32694        17.15199       -10.19507
   H       -3.43629        15.98691       -10.93454
   H       -0.42058        16.11751       -11.42309
   H       -1.67033        16.67017       -12.54221
   H       -1.52082        14.95172       -12.15988
   H       -0.57425        16.36692        -8.59077
   H        4.07213        17.44345        -9.40676
   H        2.56013        15.40073        -9.49724
   H        5.86013        17.42852        -5.20744
   H        4.24234        13.74796        -1.02307
   H        6.05502        15.52878        -1.04220
*
