# ORCA input file
# SCF done       -183.219148599072          0.000478980510
! CAM-B3LYP def2-SVP def2/J RIJCOSX Grid4 TightSCF
%maxcore 5000
%tddft
    Mode sTDDFT
    Ethresh 5.0
    maxcore 5000
end

%pal
  nprocs 6
  end
* xyz 0 1
   C        7.20718        -7.64701        -0.73241
   S        5.69428        -7.95700        -1.45502
   C        5.63458        -6.39734        -2.18044
   C        6.76956        -5.66292        -1.89006
   C        7.67850        -6.39121        -1.03966
   C        8.89103        -5.79118        -0.63037
   C        9.18858        -4.52469        -1.05464
   C       10.39753        -3.90803        -0.65473
   N       11.37995        -3.42493        -0.31703
   C        8.28550        -3.80182        -1.90844
   C        8.63451        -2.49359        -2.31825
   N        8.90076        -1.42843        -2.64515
   C        7.10278        -4.35791        -2.31644
   C        4.50147        -6.00015        -3.07081
   C        4.93491        -6.15302        -4.54660
   O        5.83586        -5.59866        -5.09226
   O        4.13459        -7.05860        -5.15640
   C        3.19534        -7.51743        -4.26808
   C        3.32731        -6.92200        -3.01209
   C        2.48010        -7.24343        -1.96836
   C        1.51269        -8.18976        -2.25256
   C        1.39003        -8.79697        -3.50609
   C        2.22999        -8.46662        -4.55285
   C        0.25951        -9.76911        -3.41761
   C       -0.21624        -9.55517        -1.96851
   O       -1.13156       -10.09763        -1.43466
   O        0.58309        -8.65038        -1.36218
   C       -0.89978        -9.52752        -4.39223
   C       -1.26077        -8.04060        -4.48468
   O       -1.41851        -7.27530        -3.58518
   O       -1.36084        -7.68333        -5.78972
   C       -1.00265        -8.74548        -6.58144
   C       -0.66109        -9.87027        -5.82602
   C       -0.21979       -11.03339        -6.42824
   C       -0.16338       -11.01129        -7.81024
   C       -0.55060        -9.90074        -8.56740
   C       -0.97403        -8.73056        -7.96470
   C       -0.46261       -10.29596       -10.00597
   C        0.11071       -11.72228        -9.89706
   O        0.39461       -12.44499       -10.79806
   O        0.25319       -12.04992        -8.59274
   C       -1.84520       -10.37047       -10.68705
   C       -2.84225       -11.03114        -9.72453
   O       -2.73522       -12.08683        -9.18356
   O       -3.89089       -10.19722        -9.51653
   C       -3.70480        -9.04371       -10.23083
   C       -2.50624        -9.05826       -10.95025
   C       -2.13623        -7.99135       -11.74888
   C       -3.02546        -6.93161       -11.78575
   C       -4.22283        -6.91896       -11.06399
   C       -4.59143        -7.98206       -10.26190
   C       -4.93155        -5.64091       -11.38713
   C       -3.95415        -4.99932       -12.39887
   O       -4.09189        -3.96976       -12.97774
   O       -2.87315        -5.80351       -12.54796
   C       -6.29597        -5.79492       -11.97200
   S       -7.54823        -4.70113       -11.53815
   C       -8.67457        -5.44904       -12.57052
   C       -8.12348        -6.51332       -13.24905
   C       -6.73525        -6.71467       -12.90988
   C       -6.02243        -7.76725       -13.52565
   C       -6.65915        -8.58410       -14.42215
   C       -5.94214        -9.64566       -15.02121
   N       -5.33282       -10.50131       -15.47875
   C       -8.04157        -8.38448       -14.75464
   C       -8.65668        -9.25498       -15.68484
   N       -9.16817        -9.95275       -16.43551
   C       -8.75544        -7.36716       -14.18060
   H        7.67322        -8.39546        -0.12376
   H        9.57161        -6.33370         0.00821
   H        6.44166        -3.81253        -2.97160
   H        4.23656        -4.95337        -2.88591
   H        2.56097        -6.79257        -0.99411
   H        2.15025        -8.91895        -5.52732
   H        0.59498       -10.80584        -3.52686
   H       -1.77207       -10.06718        -3.99856
   H        0.05116       -11.91390        -5.87124
   H       -1.26534        -7.85941        -8.52747
   H        0.20202        -9.66797       -10.60430
   H       -1.74418       -10.97831       -11.59332
   H       -1.22671        -7.98298       -12.32530
   H       -5.51366        -7.99746        -9.70670
   H       -4.99387        -4.97529       -10.51895
   H       -9.67785        -5.07864       -12.63563
   H       -4.98169        -7.93673       -13.29689
   H       -9.79403        -7.21347       -14.43134
*
