# ORCA input file
# SCF done       -130.957237189341          0.000596390344
! CAM-B3LYP def2-SVP def2/J RIJCOSX Grid4 TightSCF
%maxcore 5000
%tddft
    Mode sTDDFT
    Ethresh 5.0
    maxcore 5000
end

%pal
  nprocs 6
  end
* xyz 0 1
   C       -1.40824       -13.23851        -0.69747
   S       -2.79368       -12.43059        -0.12225
   C       -2.58075       -11.10649        -1.20828
   C       -1.43613       -11.28407        -1.97976
   C       -0.76922       -12.52881        -1.69011
   C        0.39322       -12.89090        -2.40706
   C        0.88615       -12.04277        -3.36254
   C        2.03223       -12.38981        -4.11373
   N        2.95865       -12.67576        -4.72471
   C        0.25815       -10.77494        -3.60624
   C        0.79868        -9.89761        -4.56900
   N        1.19740        -9.16324        -5.35481
   C       -0.86828       -10.40143        -2.91931
   C       -3.54053       -10.02728        -1.26016
   C       -3.85486        -9.39105        -2.46186
   C       -4.77862        -8.35278        -2.46533
   C       -5.38118        -8.01209        -1.25332
   N       -5.10696        -8.62434        -0.11665
   C       -4.21829        -9.59463        -0.11317
   C       -5.11906        -7.68543        -3.72545
   C       -4.12591        -7.24354        -4.59366
   C       -4.48660        -6.66397        -5.80791
   C       -5.85730        -6.52469        -6.06659
   N       -6.79824        -6.91456        -5.23672
   C       -6.44802        -7.48346        -4.09966
   C       -3.52237        -6.14255        -6.75761
   S       -3.85687        -4.59149        -7.43909
   C       -2.39936        -4.58021        -8.37628
   C       -1.70239        -5.77473        -8.20298
   C       -2.33650        -6.66280        -7.26211
   C       -1.74238        -7.93862        -7.02671
   C       -2.30457        -8.91351        -6.18025
   N       -2.69135        -9.76882        -5.51862
   C       -0.57909        -8.29143        -7.68093
   C        0.00722        -7.44281        -8.62290
   C       -0.54919        -6.21411        -8.91127
   C       -0.01254        -5.49109        -9.99859
   N        0.42521        -4.98141       -10.92842
   C       -2.02966        -3.39748        -9.08583
   S       -0.44642        -2.71544        -8.94216
   C       -0.84592        -1.32601        -9.88107
   C       -2.17106        -1.38874       -10.31605
   C       -2.85470        -2.55919        -9.83865
   C       -4.19710        -2.78548       -10.19536
   C       -4.84821        -1.88274       -10.99774
   C       -6.20056        -2.09476       -11.35032
   N       -7.29749        -2.28239       -11.62300
   C       -4.15996        -0.73402       -11.50410
   C       -4.84277         0.15935       -12.36117
   N       -5.38159         0.90007       -13.04965
   C       -2.84673        -0.50281       -11.17816
   C        0.17126        -0.32899       -10.07854
   C       -0.02729         0.97102       -10.28928
   H       -1.13402       -14.19102        -0.29030
   H        0.88157       -13.83139        -2.20083
   H       -1.30262        -9.43013        -3.09254
   H       -3.43750        -9.73368        -3.39713
   H       -6.10868        -7.21358        -1.19707
   H       -4.02498       -10.05699         0.84663
   H       -3.08641        -7.31016        -4.30671
   H       -6.19832        -6.07753        -6.99186
   H       -7.25925        -7.80025        -3.45859
   H       -0.12904        -9.25125        -7.48233
   H        0.88634        -7.76888        -9.15667
   H       -4.71304        -3.66893        -9.85054
   H       -2.33024         0.34103       -11.60623
   H        1.18398        -0.70393        -9.99750
   H       -1.00594         1.41709       -10.30749
   H        0.80463         1.63935       -10.42410
*
