# ORCA input file
# SCF done       -149.035066738277          0.000886465058
! CAM-B3LYP def2-SVP def2/J RIJCOSX Grid4 TightSCF
%maxcore 5000
%tddft
    Mode sTDDFT
    Ethresh 5.0
    maxcore 5000
end

%pal
  nprocs 6
  end
* xyz 0 1
   C        1.76047         7.36586        -4.19712
   O        2.90657         6.78988        -3.84539
   C        2.65076         5.94124        -2.81352
   C        1.31281         5.98006        -2.50189
   C        0.73209         6.91101        -3.40507
   C       -0.61130         7.30605        -3.46128
   N       -1.70856         7.63970        -3.47471
   C        3.75031         5.19090        -2.28393
   C        3.65670         4.30769        -1.27580
   C        4.75057         3.48125        -0.80763
   C        5.79188         3.14606        -1.68960
   C        6.76901         2.27288        -1.28040
   C        6.72383         1.68283        -0.01070
   C        7.88400         0.77051         0.11386
   O        8.21467         0.06763         1.03541
   N        8.55732         0.86754        -1.09577
   C        7.95947         1.74746        -1.98782
   O        8.36443         1.98895        -3.09691
   C        9.78199         0.15300        -1.38532
   C       11.00696         0.98749        -1.02812
   C        5.71161         1.98438         0.86567
   C        4.73119         2.91838         0.48998
   C        3.76108         3.26957         1.50595
   C        3.22332         4.48317         1.73025
   C        2.35256         4.71337         2.83913
   S        1.91019         6.35661         3.34051
   C        0.95038         5.81783         4.73657
   C        1.03097         4.45300         4.75517
   C        1.78286         3.85020         3.71991
   C        1.42654         2.50203         4.30707
   N        0.57087         3.23740         5.26362
   C        0.37805         6.68718         5.73889
   C        0.47980         6.22638         7.06370
   C        0.03352         7.01589         8.09254
   C       -0.49050         8.29093         7.84407
   C       -0.84566         8.90069         9.14442
   O       -1.31359         9.98443         9.38683
   N       -0.51627         7.94559        10.09949
   C        0.01290         6.78591         9.55495
   O        0.36912         5.82152        10.18547
   C       -0.75417         8.12434        11.51558
   C       -2.15894         7.67203        11.89890
   C       -0.61394         8.75620         6.55815
   C       -0.22603         7.94026         5.48129
   C       -0.56023         8.43067         4.16265
   C       -0.84922         7.67989         3.08387
   C       -1.26472         8.22822         1.83505
   O       -1.63203         9.51447         1.70540
   C       -1.99115         9.72205         0.41370
   C       -1.84557         8.56330        -0.31098
   C       -1.37209         7.58971         0.60056
   C       -0.97533         6.27670         0.33436
   N       -0.59602         5.21383         0.12100
   C       -2.44485        11.01767        -0.01830
   C       -2.54550        12.07757         0.77924
   H        1.77196         8.07054        -5.00546
   H        0.79836         5.43444        -1.73734
   H        4.69766         5.39869        -2.76138
   H        2.70396         4.16425        -0.78549
   H        5.81206         3.54220        -2.69216
   H        9.78113        -0.08145        -2.45267
   H        9.76514        -0.76997        -0.80081
   H       11.01043         1.91191        -1.60103
   H       11.91098         0.43050        -1.25721
   H       11.00243         1.22763         0.03267
   H        5.68216         1.53044         1.84468
   H        3.53450         2.48092         2.21268
   H        3.47764         5.33706         1.11976
   H        2.26352         1.96664         4.75913
   H        0.85254         1.83836         3.66039
   H        0.52198         3.01307         6.24580
   H        0.93160         5.26885         7.26992
   H       -0.62244         9.18573        11.73929
   H       -0.00468         7.53486        12.04904
   H       -2.90096         8.25774        11.36116
   H       -2.31166         7.80768        12.96575
   H       -2.29396         6.62033        11.65640
   H       -1.04280         9.72884         6.36994
   H       -0.67981         9.50343         4.08086
   H       -0.79698         6.60179         3.10839
   H       -2.05014         8.41977        -1.35275
   H       -2.70655        11.07165        -1.06522
   H       -2.28553        12.02065         1.82263
   H       -2.88956        13.02808         0.41301
*
