# ORCA input file
# SCF done       -155.103426460789          0.000372262292
! CAM-B3LYP def2-SVP def2/J RIJCOSX Grid4 TightSCF
%maxcore 5000
%tddft
    Mode sTDDFT
    Ethresh 5.0
    maxcore 5000
end

%pal
  nprocs 6
  end
* xyz 0 1
   C        4.80695       -15.56911         3.95530
   S        4.14082       -14.03326         4.24248
   C        3.11611       -14.10924         2.84003
   C        3.33566       -15.30868         2.14650
   C        4.30210       -16.14731         2.80838
   C        4.64927       -17.40339         2.26652
   C        4.08060       -17.80822         1.08753
   C        4.41156       -19.06464         0.52815
   N        4.69091       -20.08550         0.08977
   C        3.16204       -16.95340         0.39658
   C        2.62642       -17.37284        -0.84222
   N        2.17782       -17.69543        -1.84625
   C        2.80400       -15.73147         0.91524
   C        2.24483       -13.01472         2.60976
   C        1.13801       -13.00135         1.82461
   C        0.31790       -11.86605         1.61034
   S       -1.21870       -12.09571         0.77038
   C       -1.61623       -10.41979         0.87400
   C       -0.64052        -9.72431         1.50148
   C        0.47053       -10.52852         1.92558
   C        1.43689        -9.66947         2.52990
   C        0.98322        -8.37307         2.51954
   C       -0.36621        -8.32063         1.86904
   O       -1.05142        -7.34180         1.69155
   C        1.60078        -7.18800         2.99282
   C        2.79443        -7.12264         3.63560
   C        3.38372        -5.91044         4.06790
   O        2.80929        -4.71574         3.83945
   C        3.61388        -3.74746         4.34941
   C        4.73128        -4.32519         4.92669
   C        4.59221        -5.71426         4.75017
   C        5.46686        -6.72782         5.16039
   N        6.17389        -7.56948         5.48894
   C        3.20007        -2.39789         4.19474
   C        3.90975        -1.32284         4.61416
   C        3.52072         0.02804         4.44210
   S        4.64313         1.28964         4.96544
   C        3.59123         2.55296         4.44354
   C        2.45450         2.05110         3.90874
   C        2.39210         0.61734         3.90318
   C        1.14133         0.23751         3.33387
   C        0.42313         1.35362         2.97070
   C        1.21524         2.58191         3.30716
   O        0.91411         3.73983         3.13013
   C       -0.86222         1.35042         2.37762
   C       -1.53284         2.47121         1.99719
   C       -2.81313         2.47800         1.41117
   S       -3.72665         1.02589         1.14557
   C       -5.06598         1.87041         0.45283
   C       -4.81719         3.24725         0.42011
   C       -3.53799         3.59613         0.96547
   C       -3.13376         4.94038         1.00280
   C       -3.97112         5.91499         0.51301
   C       -3.57641         7.27170         0.53941
   N       -3.24505         8.36856         0.56605
   C       -5.24851         5.56939        -0.03065
   C       -6.09102         6.58967        -0.52854
   N       -6.79163         7.39855        -0.93856
   C       -5.66078         4.25992        -0.07380
   C       -6.23608         1.18596        -0.00069
   C       -6.41887        -0.13455         0.05984
   H        5.53186       -15.98023         4.62910
   H        5.36354       -18.03055         2.77819
   H        2.13842       -15.09783         0.35196
   H        2.47953       -12.12616         3.17845
   H        0.79955       -13.90884         1.34758
   H       -2.54034       -10.06624         0.46054
   H        2.38941        -9.98332         2.91629
   H        1.04795        -6.27483         2.81262
   H        3.36610        -8.01391         3.85103
   H        5.54323        -3.82382         5.41152
   H        2.25726        -2.26892         3.68742
   H        4.85947        -1.47681         5.10737
   H        3.88494         3.57678         4.56810
   H        0.79008        -0.77029         3.20407
   H       -1.32103         0.37972         2.22172
   H       -1.06210         3.43170         2.14754
   H       -2.17264         5.21374         1.41050
   H       -6.62760         4.01747        -0.48776
   H       -7.01066         1.81593        -0.41666
   H       -5.66781        -0.79062         0.46787
   H       -7.32293        -0.59328        -0.29726
*
