# ORCA input file
# SCF done       -178.619478904124          0.000955815098
! CAM-B3LYP def2-SVP def2/J RIJCOSX Grid4 TightSCF
%maxcore 5000
%tddft
    Mode sTDDFT
    Ethresh 5.0
    maxcore 5000
end

%pal
  nprocs 6
  end
* xyz 0 1
   C       -1.01078        -5.36071        -0.17799
   C       -1.51779        -5.03428         1.05969
   C       -0.74253        -4.93357         2.23121
   N       -0.17405        -4.83215         3.22478
   C       -2.86622        -4.74990         1.35027
   N       -3.93954        -4.50468         1.68113
   C        0.39469        -5.64601        -0.45996
   C        0.53104        -5.92826        -1.84166
   C        1.73774        -6.23735        -2.41902
   C        2.86744        -6.27089        -1.59466
   C        2.72196        -5.98825        -0.21708
   C        1.49969        -5.67468         0.36785
   S        4.24591        -6.08869         0.60920
   C        5.04752        -6.49942        -0.86818
   C        4.21961        -6.56062        -1.93355
   C       -0.79146        -5.83357        -2.49039
   O       -1.02771        -6.01436        -3.67047
   C       -1.73950        -5.48028        -1.41459
   C       -3.09790        -5.30941        -1.59274
   C       -3.76308        -5.43684        -2.80775
   C       -5.12807        -5.27136        -2.94412
   C       -5.87299        -5.38937        -4.13884
   C       -7.21289        -5.18199        -3.98398
   C       -7.59019        -4.88967        -2.65701
   S       -6.18991        -4.88179        -1.60918
   C       -8.86399        -4.63984        -2.17205
   C      -10.07771        -4.63620        -2.89495
   C      -11.17710        -4.36182        -2.13811
   C      -10.89763        -4.12948        -0.77049
   S       -9.16423        -4.28794        -0.49309
   C      -11.71416        -3.84719         0.29846
   C      -13.10676        -3.65138         0.33455
   C      -14.04606        -3.49794        -0.65141
   C      -15.37448        -3.33504        -0.11560
   C      -15.25667        -3.38718         1.25973
   C      -13.81526        -3.48874         1.65661
   C      -13.76475        -4.58919         2.71259
   C      -14.93792        -4.28682         3.63696
   S      -16.32374        -3.73450         2.55654
   C      -16.51023        -3.26219        -0.96552
   C      -17.78221        -2.86117        -0.67398
   C      -18.33308        -2.26775         0.49248
   C      -19.65815        -1.98265         0.40178
   C      -20.24335        -2.33363        -0.84008
   S      -19.04097        -3.01457        -1.90227
   C      -21.56485        -2.20518        -1.21744
   C      -22.66006        -1.73692        -0.45898
   C      -23.84828        -1.80454        -1.11953
   C      -23.76710        -2.34959        -2.42662
   S      -22.10504        -2.72116        -2.80135
   C      -24.83783        -2.47890        -3.29145
   C      -24.88906        -2.99701        -4.58487
   C      -24.03458        -3.81254        -5.30033
   C      -22.99203        -4.72147        -4.93509
   C      -22.83557        -5.34702        -3.71530
   C      -21.78059        -6.22187        -3.40118
   N      -20.92723        -6.91743        -3.07200
   C      -23.77254        -5.24234        -2.67190
   N      -24.52513        -5.19481        -1.80543
   C      -22.22909        -5.03414        -6.14182
   C      -22.91487        -4.49639        -7.25944
   C      -24.11262        -3.77506        -6.78337
   O      -24.96422        -3.23122        -7.45351
   C      -22.46287        -4.65376        -8.54601
   C      -21.27024        -5.36092        -8.73717
   C      -20.58626        -5.87750        -7.61352
   C      -21.05046        -5.73017        -6.31003
   S      -19.13177        -6.69906        -8.08717
   C      -19.44997        -6.35548        -9.75369
   C      -20.58817        -5.65693        -9.95206
   H        1.80783        -6.44757        -3.47512
   H        1.44336        -5.46768         1.42335
   H        6.10579        -6.67318        -0.84497
   H        4.53904        -6.80189        -2.93137
   H       -3.70352        -5.06140        -0.72950
   H       -3.19293        -5.68006        -3.69278
   H       -5.39555        -5.62528        -5.07313
   H       -7.92892        -5.23296        -4.78441
   H      -10.11027        -4.84072        -3.95002
   H      -12.17572        -4.34452        -2.53057
   H      -11.21608        -3.78637         1.25813
   H      -13.86500        -3.49190        -1.70948
   H      -13.49566        -2.54206         2.11343
   H      -12.82834        -4.59661         3.26879
   H      -13.89787        -5.56070         2.23282
   H      -14.71190        -3.46768         4.32034
   H      -15.28087        -5.14804         4.20551
   H      -16.32737        -3.57277        -1.98630
   H      -17.72980        -2.04310         1.35188
   H      -20.23384        -1.52941         1.18843
   H      -22.54507        -1.37840         0.54781
   H      -24.79322        -1.50564        -0.70251
   H      -25.75692        -2.03350        -2.92994
   H      -25.72854        -2.64923        -5.18203
   H      -23.00975        -4.24373        -9.38093
   H      -20.49449        -6.13922        -5.48268
   H      -18.75276        -6.70445       -10.49036
   H      -20.94722        -5.35334       -10.91892
*
