# ORCA input file
# SCF done       -245.727500198413          0.000830117030
! CAM-B3LYP def2-SVP def2/J RIJCOSX Grid4 TightSCF
%maxcore 5000
%tddft
    Mode sTDDFT
    Ethresh 5.0
    maxcore 5000
end

%pal
  nprocs 6
  end
* xyz 0 1
   C       -2.42492        -2.93876         0.30362
   C       -2.32443        -3.24219        -1.02929
   C       -1.87141        -4.48344        -1.52338
   N       -1.51802        -5.47308        -1.98565
   C       -2.61658        -2.36508        -2.09569
   N       -2.81571        -1.71754        -3.02335
   C       -2.02620        -3.81159         1.39895
   C       -2.12403        -3.08673         2.61024
   C       -1.81138        -3.63510         3.83024
   C       -1.38260        -4.96603         3.85612
   C       -1.29374        -5.68557         2.64048
   C       -1.60851        -5.13010         1.40705
   S       -0.75279        -7.31663         2.90141
   C       -0.65213        -7.01244         4.61537
   C       -1.00537        -5.75610         4.97644
  Br       -0.09257        -8.38345         5.76658
   C       -2.60655        -1.71667         2.33596
   O       -2.79702        -0.85859         3.16962
   C       -2.85927        -1.67084         0.87322
   C       -3.56258        -0.73411         0.17627
   C       -4.00572         0.57817         0.54062
   C       -5.10403         1.10018        -0.17494
   C       -5.57161         2.35582         0.10884
   C       -4.96159         3.12514         1.12100
   C       -3.85062         2.64117         1.79963
   C       -3.37649         1.38014         1.50535
   C       -5.69879         4.35887         1.26903
   C       -6.76763         4.35059         0.35695
   C       -6.72844         3.10855        -0.50648
   C       -6.40934         3.57400        -1.94763
   C       -6.13056         2.47022        -2.95906
   C       -8.03996         2.31270        -0.44325
   C       -8.43102         1.95356         0.98591
   C       -7.65149         5.39993         0.31091
   C       -7.48188         6.49504         1.17008
   C       -6.41093         6.48897         2.07263
   C       -5.52426         5.43337         2.13164
   C       -8.42529         7.58983         1.07400
   C       -8.25330         8.83485         1.54038
   C       -9.24601         9.89127         1.39351
   C       -8.93743        11.24304         1.16807
   N       -7.72196        11.88193         0.97989
   C       -6.50197        11.24039         0.53744
   C       -6.70940        10.40229        -0.72172
   C       -7.95257        13.23657         0.89614
   C       -9.34723        13.48049         0.96273
   C       -9.97388        12.20564         1.14387
   C      -11.30729        11.84903         1.28586
   C      -11.60982        10.51493         1.46490
   C      -10.59752         9.56836         1.52234
   C       -9.86887        14.75949         0.85490
   C       -8.99008        15.81511         0.70799
   C       -7.62183        15.59073         0.68844
   C       -7.06057        14.31626         0.78674
   C       -5.61025        14.19417         0.83081
   C       -4.73825        14.89428         0.08705
   C       -5.04587        15.84545        -0.95954
   C       -6.04536        15.72718        -1.94775
   C       -6.80939        14.49243        -2.18579
   O       -6.62972        13.40497        -1.72093
   S       -8.07821        14.80260        -3.40654
   C       -7.46606        16.45552        -3.74586
   O       -7.95460        17.13986        -4.59699
   C       -6.34139        16.75844        -2.84130
   C       -5.61303        17.97324        -2.90253
   C       -4.56741        18.05596        -1.96134
   C       -4.31414        17.03884        -1.04259
   C       -3.21326        17.48874        -0.16437
   O       -2.66952        16.93278         0.74100
   O       -2.86956        18.75331        -0.56563
   C       -3.64627        19.16808        -1.62468
   O       -3.52376        20.26097        -2.08673
   C       -5.96312        18.99527        -3.84836
   C       -5.10215        19.82776        -4.46472
   C       -5.46716        20.82458        -5.44141
   C       -4.52453        21.81866        -5.75346
   C       -4.84557        22.79939        -6.65782
   C       -6.10074        22.80195        -7.29200
   C       -7.03246        21.81314        -7.00725
   C       -6.71209        20.83683        -6.08639
   C       -6.15609        23.92941        -8.19792
   C       -4.93874        24.62551        -8.11995
   C       -4.00996        23.96757        -7.12639
   C       -3.67559        24.91478        -5.95832
   C       -4.91654        25.42395        -5.23501
   C       -2.70680        23.49662        -7.79746
   C       -2.95300        22.55649        -8.97140
   C       -4.72634        25.74413        -8.88957
   C       -5.72777        26.19339        -9.76046
   C       -6.93588        25.49122        -9.82191
   C       -7.15833        24.36737        -9.05114
   C       -5.46457        27.37827       -10.56536
   C       -6.25442        27.90497       -11.49455
   H       -1.89541        -3.05487         4.73578
   H       -1.53058        -5.72152         0.51027
   H       -1.00190        -5.39954         5.99026
   H       -3.88287        -1.03110        -0.81692
   H       -5.58426         0.48075        -0.91783
   H       -3.36408         3.24121         2.55349
   H       -2.50503         1.00982         2.01677
   H       -5.53849         4.23350        -1.90096
   H       -7.25507         4.17172        -2.29535
   H       -5.22859         1.92229        -2.70119
   H       -5.98316         2.91419        -3.94116
   H       -6.96184         1.77368        -3.02803
   H       -7.93147         1.39586        -1.02385
   H       -8.83450         2.90670        -0.89972
   H       -7.65626         1.35192         1.45659
   H       -9.35787         1.38445         0.98953
   H       -8.57570         2.85122         1.58302
   H       -8.47786         5.39743        -0.38574
   H       -6.28677         7.31874         2.75172
   H       -4.70992         5.44219         2.84073
   H       -9.32041         7.36985         0.50507
   H       -7.34090         9.09663         2.05468
   H       -6.07556        10.63562         1.34350
   H       -5.79464        12.03024         0.28837
   H       -7.41219         9.59130        -0.55943
   H       -5.75656         9.97817        -1.02759
   H       -7.07822        11.03983        -1.51966
   H      -12.08006        12.60154         1.26352
   H      -12.63605        10.20133         1.58269
   H      -10.85802         8.53851         1.71570
   H      -10.93457        14.92204         0.89577
   H       -9.36141        16.82620         0.63488
   H       -6.95496        16.44023         0.64761
   H       -5.20759        13.54689         1.59961
   H       -3.68644        14.82993         0.33048
   H       -7.00799        19.02853        -4.11678
   H       -4.04705        19.77120        -4.24064
   H       -3.56580        21.81015        -5.25561
   H       -7.99237        21.80334        -7.50142
   H       -7.42485        20.05293        -5.88291
   H       -3.10974        25.76341        -6.34861
   H       -3.03694        24.38356        -5.24975
   H       -5.56475        25.96808        -5.91864
   H       -4.62935        26.09255        -4.42686
   H       -5.48111        24.59628        -4.81160
   H       -2.09181        22.99114        -7.05001
   H       -2.15594        24.37315        -8.14507
   H       -3.48600        21.66586        -8.64561
   H       -2.00630        22.25005        -9.41046
   H       -3.54561        23.04826        -9.73975
   H       -3.79061        26.28286        -8.83333
   H       -7.71563        25.83489       -10.48345
   H       -8.09842        23.83943        -9.11304
   H       -4.50950        27.85054       -10.36695
   H       -7.21036        27.48542       -11.75697
   H       -5.96182        28.78396       -12.04274
*
