# ORCA input file
# SCF done       -203.203540163209          0.000941844836
! CAM-B3LYP def2-SVP def2/J RIJCOSX Grid4 TightSCF
%maxcore 5000
%tddft
    Mode sTDDFT
    Ethresh 5.0
    maxcore 5000
end

%pal
  nprocs 6
  end
* xyz 0 1
   C      -13.46415         0.08858         1.29537
   C      -13.51390         0.21697         2.65844
   C      -14.14413        -0.70405         3.52049
   N      -14.64390        -1.41768         4.26747
   C      -12.93194         1.28704         3.36884
   N      -12.46514         2.13877         3.98051
   C      -14.03893        -1.00284         0.51389
   C      -13.75339        -0.78899        -0.86068
   C      -14.17085        -1.65052        -1.84707
   C      -14.90653        -2.77571        -1.46160
   C      -15.18659        -2.98138        -0.08883
   C      -14.76284        -2.11086         0.90896
   S      -16.10983        -4.42896         0.16500
   C      -16.10950        -4.73628        -1.55150
   C      -15.45071        -3.80262        -2.27955
  Br      -16.97809        -6.25741        -2.21950
   C      -12.98844         0.45349        -0.99690
   O      -12.55922         0.96240        -2.02947
   C      -12.83264         0.99143         0.35879
   C      -12.19229         2.18351         0.58648
   N      -11.68061         2.87238        -0.44095
   C      -11.05460         4.07430        -0.39555
   S      -10.82544         4.92599         1.09958
   C      -10.05459         6.20537         0.22184
   N       -9.58753         7.31729         0.93918
   O       -9.06514         8.21302         0.30317
   O       -9.74193         7.29736         2.14549
   C       -9.97951         5.98329        -1.12621
   C      -10.55000         4.75441        -1.51114
   C      -10.60901         4.24141        -2.85788
   C      -10.21914         4.92933        -3.94249
   C      -10.20851         4.37948        -5.28346
   C       -9.83336         3.09126        -5.52260
   S       -9.74348         2.64890        -7.18432
   C      -10.25154         4.24552        -7.63377
   C      -10.49027         5.08501        -6.51090
   C      -11.01150         6.36280        -6.74795
   C      -11.37743         7.29288        -5.62874
   C      -10.22175         8.24328        -5.29834
   C      -11.18572         6.74056        -8.08751
   C      -10.84512         5.80748        -9.10214
   N      -10.40939         4.58674        -8.89211
   S      -11.12096         6.41704       -10.70444
   C      -11.68325         7.90637       -10.04263
   C      -11.69784         7.94628        -8.68356
   N      -12.16671         9.04988        -7.95487
   C      -13.17348         9.86957        -8.34987
   S      -13.13739        11.53222        -7.86004
   C      -14.63451        11.80642        -8.70348
   N      -15.16967        13.09672        -8.63363
   O      -16.19551        13.32430        -9.24297
   O      -14.54468        13.90328        -7.96330
   C      -15.11434        10.68989        -9.32693
   C      -14.29768         9.55645        -9.12767
   C      -14.61667         8.23616        -9.59298
   C      -15.42388         7.97393       -10.64490
   C      -15.71496         6.64824       -11.05400
   C      -16.57960         6.24100       -12.02090
   C      -17.58634         6.94329       -12.79148
   C      -18.32306         8.02655       -12.39039
   C      -19.35073         8.60359       -13.16687
   N      -20.19007         9.11083       -13.76259
   C      -18.22487         8.63174       -11.12010
   N      -18.20904         9.14573       -10.09376
   C      -17.84575         6.14570       -13.98639
   C      -17.20801         4.88681       -13.84341
   C      -16.46072         4.86190       -12.57148
   O      -15.84046         3.94315       -12.08853
   C      -17.29924         3.90138       -14.79652
   C      -18.04388         4.17409       -15.94868
   C      -18.66434         5.43935       -16.08842
   C      -18.57957         6.43349       -15.12149
   S      -19.52103         5.56854       -17.59368
   C      -19.04533         3.94289       -18.00861
   C      -18.28258         3.33334       -17.06995
  Br      -19.59756         3.20606       -19.64194
   H      -13.93980        -1.46197        -2.88373
   H      -15.00271        -2.31022         1.93995
   H      -15.35305        -3.83570        -3.34923
   H      -12.08279         2.60841         1.57586
   H      -11.82393         2.41069        -1.35837
   H       -9.51835         6.69193        -1.78864
   H      -11.00864         3.24586        -2.99037
   H       -9.84227         5.93341        -3.83189
   H       -9.54868         2.36777        -4.78338
   H      -11.63666         6.70886        -4.74515
   H      -12.26061         7.86729        -5.91082
   H       -9.34717         7.68873        -4.96522
   H      -10.51404         8.93454        -4.51154
   H       -9.91587         8.81656        -6.17200
   H      -12.00553         8.68427       -10.70655
   H      -11.51866         9.45029        -7.28901
   H      -16.05593        10.67600        -9.84632
   H      -14.19689         7.40836        -9.03784
   H      -15.82446         8.79126       -11.22447
   H      -15.12576         5.85596       -10.60279
   H      -16.80970         2.95009       -14.65890
   H      -19.06245         7.38430       -15.27521
   H      -17.90228         2.33254       -17.16329
*
