# ORCA input file
# SCF done       -181.985053253946          0.000677387453
! CAM-B3LYP def2-SVP def2/J RIJCOSX Grid4 TightSCF
%maxcore 5000
%tddft
    Mode sTDDFT
    Ethresh 5.0
    maxcore 5000
end

%pal
  nprocs 6
  end
* xyz 0 1
   C      -11.75314        -0.10101         5.54417
   C      -11.83794        -0.43418         6.87934
   C      -11.09912        -1.46896         7.47962
   N      -10.51519        -2.30101         8.01612
   C      -12.65092         0.24071         7.80786
   N      -13.29798         0.75693         8.60491
   C      -10.93630        -0.79889         4.54639
   C      -11.05830        -0.12381         3.30923
   C      -10.47501        -0.57070         2.15130
   C       -9.73567        -1.75630         2.21343
   C       -9.59880        -2.41602         3.45506
   C      -10.18668        -1.95687         4.62974
   S       -8.62825        -3.85313         3.30535
   C       -8.43973        -3.55524         1.59773
   C       -9.06478        -2.43781         1.16071
  Br       -7.43180        -4.74349         0.54484
   C      -11.93324         1.05105         3.49038
   O      -12.05309         1.98831         2.73020
   C      -12.50388         0.90806         4.85713
   C      -13.57561         1.66974         5.30080
   C      -14.54154         2.17824         4.42792
   C      -14.85999         1.58648         3.21479
   C      -15.59527         2.11549         2.13752
   C      -15.61432         1.31769         1.02198
   C      -14.92555         0.10323         1.18743
   S      -14.35721        -0.04980         2.82881
   C      -14.51685        -0.85389         0.27032
   C      -14.67637        -0.91966        -1.12675
   C      -13.98481        -1.94339        -1.70784
   C      -13.25173        -2.74553        -0.79645
   S      -13.49882        -2.15984         0.83523
   C      -12.43357        -3.80316        -1.11097
   C      -11.72809        -4.62165        -0.21078
   S      -11.97742        -4.53847         1.53195
   C      -10.90868        -5.86930         1.81340
   C      -10.38022        -6.32777         0.65778
   C      -10.81372        -5.63140        -0.49737
   C      -10.20546        -6.15671        -1.70189
   C       -9.35260        -7.17376        -1.45362
   S       -9.23523        -7.68839         0.27195
   O      -10.02417        -8.92311         0.38468
   N      -10.56025        -5.68384        -2.95692
   C      -10.27803        -6.40705        -4.11757
   C       -9.75729        -5.88108        -5.25936
   S       -9.61864        -7.05288        -6.50872
   C      -10.27701        -8.27304        -5.49296
   C      -10.59428        -7.80458        -4.25197
   N      -11.20888        -8.51268        -3.22938
   C      -10.82712        -9.73102        -2.71731
   C       -9.94896       -10.59648        -3.24587
   C       -9.57674       -11.84335        -2.60851
   C       -9.10837       -12.89913        -3.40517
   C       -8.77425       -14.09871        -2.82470
   C       -8.83116       -14.24513        -1.42670
   C       -9.26859       -13.19894        -0.62675
   C       -9.65011       -12.01273        -1.21985
   C       -8.32838       -15.55625        -1.07842
   C       -7.96894       -16.22503        -2.25929
   C       -8.29802       -15.38011        -3.47268
   C       -9.44821       -16.10004        -4.21615
   C      -10.06559       -15.33877        -5.38175
   C       -7.08141       -15.16295        -4.38251
   C       -5.89176       -14.58299        -3.62581
   C       -7.43769       -17.49091        -2.20878
   C       -7.24239       -18.11894        -0.97109
   C       -7.60781       -17.43952         0.19562
   C       -8.14745       -16.16946         0.15310
   C       -6.66845       -19.45657        -0.95737
   C       -6.38353       -20.19577         0.10945
   H      -10.59639        -0.03292         1.22409
   H      -10.05725        -2.50125         5.55035
   H       -9.05109        -2.10108         0.14017
   H      -13.68081         1.88728         6.35581
   H      -15.11936         3.04103         4.73054
   H      -16.03057         3.09818         2.18279
   H      -16.07976         1.59033         0.09130
   H      -15.27441        -0.20719        -1.66616
   H      -13.96952        -2.14115        -2.76532
   H      -12.34680        -4.05191        -2.15988
   H      -10.75423        -6.22167         2.81324
   H       -8.77285        -7.70450        -2.18425
   H      -10.54220        -4.67949        -3.06579
   H       -9.44449        -4.87195        -5.43801
   H      -10.43148        -9.25556        -5.88734
   H      -11.72912        -7.93051        -2.58934
   H      -11.32157        -9.96481        -1.78626
   H       -9.48347       -10.39053        -4.19871
   H       -9.02142       -12.75095        -4.47207
   H       -9.29852       -13.30418         0.44745
   H       -9.95892       -11.18618        -0.59865
   H      -10.23247       -16.31664        -3.48558
   H       -9.06321       -17.05642        -4.57811
   H      -10.53156       -14.41921        -5.03850
   H      -10.83345       -15.95365        -5.84702
   H       -9.32254       -15.09928        -6.13807
   H       -7.35500       -14.48223        -5.19000
   H       -6.79836       -16.11835        -4.83014
   H       -6.15696       -13.63080        -3.17144
   H       -5.05617       -14.42214        -4.30369
   H       -5.57082       -15.25969        -2.83695
   H       -7.15884       -18.00985        -3.11575
   H       -7.46567       -17.91617         1.15302
   H       -8.42229       -15.66133         1.06559
   H       -6.46130       -19.86390        -1.94033
   H       -6.55681       -19.86008         1.11733
   H       -5.95849       -21.17983         0.00941
*
