# ORCA input file
# SCF done       -220.165978426877          0.000269216030
! CAM-B3LYP def2-SVP def2/J RIJCOSX Grid4 TightSCF
%maxcore 5000
%tddft
    Mode sTDDFT
    Ethresh 5.0
    maxcore 5000
end

%pal
  nprocs 6
  end
* xyz 0 1
   C       -3.15033        -1.14007        -3.56230
   C       -3.14734        -1.10980        -4.93243
   C       -2.79349        -2.20717        -5.74534
   N       -2.52199        -3.06497        -6.45832
   C       -3.45957         0.01394        -5.72711
   N       -3.68062         0.88073        -6.44760
   C       -2.73619        -2.26904        -2.74107
   C       -2.73267        -1.86333        -1.38524
   C       -2.38231        -2.70717        -0.35943
   C       -2.01687        -4.01640        -0.68806
   C       -2.02760        -4.41525        -2.04630
   C       -2.38208        -3.56171        -3.08300
   S       -1.54961        -6.07620        -2.22816
   C       -1.34307        -6.20943        -0.50184
   C       -1.61710        -5.07076         0.17791
  Br       -0.78502        -7.83918         0.23979
   C       -3.15790        -0.45155        -1.28408
   O       -3.27124         0.17903        -0.25636
   C       -3.47882        -0.03436        -2.67400
   C       -4.16156         1.07901        -3.06006
   C       -4.47799         2.26916        -2.32579
   C       -5.61937         2.99189        -2.72866
   C       -5.96535         4.14386        -2.07186
   C       -5.18544         4.60082        -0.99019
   C       -4.03048         3.92582        -0.61829
   C       -3.67984         2.77224        -1.28763
   C       -5.81807         5.77309        -0.42883
   C       -6.98621         6.04243        -1.16037
   C       -7.13906         5.06672        -2.30770
   C       -6.98134         5.87691        -3.61647
   C       -6.91414         5.06229        -4.90152
   C       -8.48074         4.32084        -2.25838
   C       -8.70599         3.62148        -0.92249
   C       -7.79494         7.09793        -0.81515
   C       -7.45981         7.90772         0.27896
   C       -6.29073         7.62678         0.99615
   C       -5.47037         6.57145         0.65274
   C       -8.34879         9.00454         0.61582
   C       -8.20064         9.89680         1.59650
   C       -9.14625        11.02284         1.79288
   O       -9.12295        11.62597         3.08993
   C       -8.90649        12.92920         2.55121
   C       -8.71192        12.37300         1.13445
   C       -9.57633        12.85826         0.03656
   C       -9.19170        12.84890        -1.24116
   C       -9.98410        13.22307        -2.39912
   C      -11.21731        13.87993        -2.29533
   C      -11.92107        14.18387        -3.43577
   C      -11.41778        13.84069        -4.70257
   C      -10.19292        13.20083        -4.81978
   C       -9.48961        12.90428        -3.66982
   C      -12.36589        14.26743        -5.70708
   C      -13.45678        14.87841        -5.06304
   C      -13.25598        14.88091        -3.56527
   C      -14.37110        14.09907        -2.84639
   C      -14.49224        12.65983        -3.33268
   C      -13.19372        16.31778        -3.01312
   C      -12.12168        17.16623        -3.68620
   C      -14.50387        15.37778        -5.79476
   C      -14.49057        15.27157        -7.19736
   C      -13.39313        14.65921        -7.82208
   C      -12.33587        14.16206        -7.09143
   C      -15.58543        15.83333        -7.93849
   C      -15.82506        15.68852        -9.26408
   C      -16.92996        16.24211        -9.95916
   C      -17.71699        17.31992        -9.67674
   C      -17.60667        18.43379        -8.75964
   C      -16.45523        18.99421        -8.26733
   C      -16.42503        20.13608        -7.44178
   N      -16.34213        21.04875        -6.74990
   C      -15.15638        18.54645        -8.57787
   N      -14.07285        18.24912        -8.81279
   C      -18.93408        19.03467        -8.64412
   C      -19.78075        18.46361        -9.62633
   C      -19.03322        17.42555       -10.36305
   O      -19.41557        16.76394       -11.30154
   C      -21.08561        18.85706        -9.79680
   C      -21.58239        19.85357        -8.95005
   C      -20.73435        20.40539        -7.96063
   C      -19.41186        20.01295        -7.79324
   S      -21.55463        21.61138        -7.01616
   C      -23.00383        21.36607        -7.95464
   C      -22.88304        20.42794        -8.92336
  Br      -24.53968        22.36922        -7.56327
   H       -2.38953        -2.36674         0.66419
   H       -2.38066        -3.91460        -4.10066
   H       -1.54199        -4.97636         1.24581
   H       -4.56962         1.06710        -4.06509
   H       -6.22824         2.60064        -3.53013
   H       -3.41486         4.29438         0.18793
   H       -2.77222         2.25901        -1.02001
   H       -6.06881         6.47326        -3.53244
   H       -7.82296         6.57079        -3.67729
   H       -6.02440         4.43940        -4.92278
   H       -6.86959         5.73865        -5.75240
   H       -7.79181         4.43251        -5.02019
   H       -8.50790         3.57895        -3.05742
   H       -9.28749         5.03513        -2.43568
   H       -7.91700         2.89759        -0.72997
   H       -9.65906         3.09753        -0.92958
   H       -8.71506         4.34142        -0.10711
   H       -8.69603         7.30963        -1.37334
   H       -6.02605         8.24457         1.83964
   H       -4.57417         6.36872         1.21967
   H       -9.22129         9.09306        -0.02208
   H       -7.35867         9.88690         2.27162
   H      -10.16851        10.73702         1.51215
   H       -8.04167        13.42204         3.00109
   H       -9.79243        13.56213         2.66896
   H       -7.66505        12.34356         0.82916
   H      -10.57382        13.16085         0.32315
   H       -8.19104        12.50075        -1.46975
   H      -11.60388        14.15335        -1.32563
   H       -9.79516        12.94100        -5.78926
   H       -8.53427        12.40444        -3.74482
   H      -15.31960        14.61659        -3.00472
   H      -14.16497        14.10299        -1.77404
   H      -14.71854        12.63108        -4.39637
   H      -15.28970        12.14967        -2.79727
   H      -13.56355        12.11866        -3.16544
   H      -12.99753        16.27020        -1.93980
   H      -14.16892        16.78890        -3.15327
   H      -11.13762        16.72397        -3.54688
   H      -12.11398        18.16552        -3.25753
   H      -12.31148        17.25308        -4.75375
   H      -15.34295        15.85454        -5.30736
   H      -13.36422        14.59457        -8.89789
   H      -11.49553        13.70213        -7.58911
   H      -16.30529        16.38679        -7.34607
   H      -15.19318        15.03641        -9.85021
   H      -17.25235        15.69242       -10.83992
   H      -21.70399        18.41130       -10.55994
   H      -18.80633        20.45918        -7.02192
   H      -23.67675        20.15054        -9.59268
*
