# ORCA input file
# SCF done       -194.478846292896          0.000986845559
! CAM-B3LYP def2-SVP def2/J RIJCOSX Grid4 TightSCF
%maxcore 5000
%tddft
    Mode sTDDFT
    Ethresh 5.0
    maxcore 5000
end

%pal
  nprocs 6
  end
* xyz 0 1
   C        3.20945        -6.42147        -3.20631
   C        4.13507        -7.41877        -3.07242
   F        5.21310        -7.44634        -3.86437
   C        3.96755        -8.42783        -2.10246
   F        4.88998        -9.39127        -1.99288
   C        2.87523        -8.42613        -1.28026
   C        1.90440        -7.41268        -1.39468
   C        2.07310        -6.39097        -2.37386
   C        1.11212        -5.36131        -2.50469
   C        0.01663        -5.35428        -1.68323
   C       -0.14460        -6.38208        -0.70819
   C        0.76658        -7.38744        -0.55775
   C       -1.38740        -6.14059         0.03552
   O       -1.85751        -6.80489         0.95063
   C       -1.96185        -4.91069        -0.52197
   C       -1.11457        -4.43241        -1.58895
   C       -1.32975        -3.33965        -2.38852
   C       -2.44556        -2.48718        -2.28273
   N       -3.34220        -1.77002        -2.24280
   C       -0.47007        -2.93875        -3.43224
   N        0.18827        -2.56602        -4.29527
   C       -3.10787        -4.35582        -0.00998
   N       -3.77051        -4.95836         0.98574
   C       -4.91292        -4.52785         1.59606
   S       -5.21102        -5.03227         3.22929
   C       -6.64274        -4.05867         3.24963
   N       -7.42123        -4.06837         4.42095
   O       -8.42956        -3.39377         4.43346
   O       -7.01542        -4.76339         5.33365
   C       -6.86997        -3.39240         2.07682
   C       -5.89056        -3.66307         1.09892
   C       -5.95464        -3.18555        -0.26224
   C       -6.52164        -2.02165        -0.62472
   C       -6.61039        -1.55827        -1.96884
   C       -7.07820        -0.31209        -2.36158
   C       -7.61077         0.59144        -1.42664
   N       -8.08551         1.26332        -0.62810
   C       -7.02685        -0.12942        -3.76792
   C       -6.54690        -1.27012        -4.40381
   S       -6.12302        -2.54080        -3.32882
   S       -6.52019        -1.18896        -6.13633
   C       -7.16533         0.41697        -6.01608
   C       -7.37004         0.87425        -4.71939
   C       -7.85090         2.21173        -4.69841
   C       -7.83167         2.98746        -3.53112
   N       -7.70505         3.63267        -2.59047
   C       -8.06814         2.71992        -5.97901
   S       -7.58385         1.56693        -7.22302
   C       -8.59245         3.95105        -6.42521
   C       -9.43572         4.81523        -5.77647
   C       -9.90118         6.04449        -6.32435
   C      -10.78551         6.70906        -5.53687
   C      -11.07416         6.04296        -4.32073
   S      -10.18696         4.54288        -4.21779
   C      -11.89674         6.46884        -3.29604
   C      -12.69736         7.63370        -3.25137
   C      -13.36829         7.80060        -2.07916
   C      -13.12308         6.78153        -1.12486
   S      -12.06232         5.56657        -1.81039
   C      -13.63254         6.59933         0.14233
   C      -14.31467         7.53653         0.93605
   C      -14.21496         8.91547         0.87764
   C      -15.08498         9.62841         1.76507
   C      -15.24307        10.99078         1.84860
   C      -14.60597        11.91255         0.99950
   N      -14.15300        12.71244         0.31181
   C      -16.13121        11.55358         2.78480
   N      -16.85237        12.00831         3.55327
   S      -16.00870         8.54126         2.76183
   C      -15.21527         7.02922         2.03764
   C      -14.41651         6.34324         3.14464
   C      -16.31444         6.12076         1.49552
   C      -13.20288         9.58574         0.16757
   N      -12.31411        10.09091        -0.35472
   H        3.35373        -5.65708        -3.95383
   H        2.76157        -9.20530        -0.54289
   H        1.27073        -4.60109        -3.25242
   H        0.62179        -8.15256         0.18968
   H       -3.49264        -3.41000        -0.36430
   H       -3.29345        -5.80001         1.35239
   H       -7.72831        -2.76423         1.92269
   H       -5.53389        -3.82832        -1.02546
   H       -6.91030        -1.34314         0.12300
   H       -8.34766         4.20956        -7.44843
   H       -9.55538         6.39243        -7.28153
   H      -11.23020         7.65488        -5.78721
   H      -12.76477         8.31220        -4.08207
   H      -14.05523         8.60604        -1.89780
   H      -13.49972         5.61359         0.56800
   H      -13.62778         6.99850         3.50924
   H      -13.96377         5.42477         2.77813
   H      -15.07438         6.09635         3.97482
   H      -16.89237         6.63591         0.73068
   H      -16.98637         5.82841         2.29904
   H      -15.88172         5.22354         1.05826
*
