# ORCA input file
# SCF done       -198.260058402336          0.000840487528
! CAM-B3LYP def2-SVP def2/J RIJCOSX Grid4 TightSCF
%maxcore 5000
%tddft
    Mode sTDDFT
    Ethresh 5.0
    maxcore 5000
end

%pal
  nprocs 6
  end
* xyz 0 1
   C      -13.62977         6.89393        10.24529
   C      -14.13230         7.83318        11.10165
   F      -13.64715         9.08539        11.09296
   C      -15.16144         7.50424        12.00388
   F      -15.63350         8.44594        12.83835
   C      -15.68508         6.24155        12.03233
   C      -15.19122         5.25104        11.16271
   C      -14.13922         5.58069        10.26129
   C      -13.61233         4.59618         9.39201
   C      -14.13202         3.33123         9.41893
   C      -15.20949         3.01926        10.29468
   C      -15.72705         3.94152        11.15486
   C      -15.63103         1.61838        10.06067
   O      -16.52149         1.02592        10.64004
   C      -14.76328         1.12123         8.97932
   C      -13.80444         2.13319         8.64878
   C      -12.71369         2.01488         7.81100
   C      -12.34240         0.86304         7.09858
   N      -11.93573        -0.02233         6.48488
   C      -11.76326         3.02330         7.58793
   N      -10.92123         3.77096         7.34743
   C      -14.91311        -0.10096         8.34225
   C      -15.83337        -1.08663         8.65998
   C      -15.97781        -2.22805         7.88038
   C      -16.86386        -3.30833         8.05981
   C      -16.79908        -4.26179         7.07485
   C      -15.86072        -3.97089         6.07343
   S      -15.03777        -2.46672         6.42993
   C      -15.53918        -4.62199         4.88723
   C      -16.04532        -5.78307         4.27320
   C      -15.49913        -6.03303         3.04286
   C      -14.54296        -5.08113         2.61726
   S      -14.33081        -3.88262         3.87667
   C      -13.90286        -5.00402         1.39676
   C      -13.03298        -3.98035         0.99991
   C      -12.49675        -3.70851        -0.26855
   C      -12.75476        -4.55361        -1.47525
   C      -14.10068        -4.20067        -2.11406
   C      -11.76646        -2.52320        -0.30508
   C      -11.69895        -1.84871         0.90596
   S      -12.53902        -2.74562         2.12572
   C      -11.05793        -0.63765         1.29977
   C      -11.33559         0.08420         2.46606
   C      -12.48063        -0.06222         3.39164
   C      -10.39809         1.16117         2.62518
   C       -9.58862         1.14746         1.49719
   C       -9.95946         0.01917         0.65103
   C       -9.21902        -0.20816        -0.47791
   C       -8.17170         0.68933        -0.78018
   C       -7.89564         1.72215         0.06593
   O       -8.56294         1.94499         1.19047
   C      -10.33211         1.89908         3.84709
   C       -9.92326         3.16311         4.11790
   C       -9.45738         4.14581         3.21769
   C       -9.39746         5.47930         3.51347
   C       -8.50713         6.39848         2.77346
   O       -7.96207         6.19604         1.70927
   C       -8.36882         7.58529         3.64926
   C       -7.56840         8.67938         3.49502
   C       -7.57086         9.68062         4.49310
   C       -8.40793         9.52840         5.63621
   C       -8.39781        10.52656         6.63098
   C       -7.59534        11.62464         6.49710
   C       -6.76903        11.77462         5.36622
   C       -6.75654        10.82437         4.38404
   F       -5.99001        12.86169         5.26068
   F       -7.58620        12.57303         7.44443
   C       -9.23580         8.38928         5.76391
   C       -9.21637         7.43354         4.78489
   C       -9.96658         6.19000         4.63516
   C      -11.12258         5.86670         5.29852
   C      -12.00149         4.84216         4.88745
   N      -12.78716         4.07572         4.54998
   C      -11.61751         6.56549         6.41466
   N      -12.05811         7.07141         7.34714
   H      -12.85267         7.15921         9.54527
   H      -16.47929         6.00897        12.72448
   H      -12.81839         4.88052         8.72008
   H      -16.53943         3.68174        11.81669
   H      -14.27154        -0.29627         7.48992
   H      -16.47372        -0.96299         9.52076
   H      -17.53061        -3.35313         8.90266
   H      -17.40726        -5.14884         7.04962
   H      -16.79966        -6.39470         4.73535
   H      -15.77316        -6.86885         2.42246
   H      -14.12901        -5.77649         0.67370
   H      -12.74844        -5.61009        -1.19973
   H      -11.95842        -4.38957        -2.20345
   H      -14.91215        -4.35757        -1.40729
   H      -14.27584        -4.82031        -2.99007
   H      -14.11111        -3.15696        -2.41921
   H      -11.32954        -2.14504        -1.21195
   H      -12.21332        -0.66364         4.26298
   H      -13.33335        -0.53109         2.90819
   H      -12.78038         0.91919         3.75493
   H       -9.40730        -1.04562        -1.12954
   H       -7.58194         0.55959        -1.67111
   H       -7.11064         2.44474        -0.09992
   H      -10.72429         1.34430         4.69043
   H      -10.00195         3.47049         5.15373
   H       -9.04666         3.84525         2.26310
   H       -6.93796         8.78134         2.62469
   H       -9.02629        10.42825         7.50232
   H       -6.11738        10.95430         3.52475
   H       -9.85613         8.29166         6.64076
*
