# ORCA input file
# SCF done       -179.404346903385          0.000541593805
! CAM-B3LYP def2-SVP def2/J RIJCOSX Grid4 TightSCF
%maxcore 5000
%tddft
    Mode sTDDFT
    Ethresh 5.0
    maxcore 5000
end

%pal
  nprocs 6
  end
* xyz 0 1
   C       -3.35965         0.49549         0.35549
   O       -3.20549        -0.46348         1.07878
   C       -3.13918         1.90750         0.74709
   C       -3.38081         2.75281        -0.34758
   C       -3.22556         4.12440        -0.19925
   C       -2.83796         4.62308         1.03483
   C       -2.60793         3.76691         2.10385
   C       -2.75125         2.39225         1.97894
  Br       -2.08310         4.49887         3.77746
   C       -3.77608         1.93388        -1.48928
   C       -4.20356         2.42153        -2.69706
   C       -4.26021         3.79425        -3.01809
   N       -4.32579         4.89390        -3.34135
   C       -4.67663         1.65017        -3.78026
   N       -5.09165         1.10895        -4.70481
   C       -3.71966         0.53829        -1.08224
   C       -3.80690        -0.50916        -1.95510
   C       -3.89551        -1.91877        -1.73663
   C       -3.55251        -2.75918        -2.81875
   C       -3.66841        -4.11630        -2.69155
   C       -4.15364        -4.68215        -1.49560
   C       -4.51320        -3.86582        -0.42951
   C       -4.38072        -2.50008        -0.55263
   C       -4.23797        -6.11084        -1.66772
   C       -3.80216        -6.43726        -2.96644
   C       -3.32568        -5.19958        -3.69245
   C       -4.04216        -4.99936        -5.03574
   C       -5.55402        -4.88519        -4.87642
   C       -1.78704        -5.18786        -3.85728
   C       -1.20132        -6.32955        -4.67723
   C       -3.88935        -7.73117        -3.41686
   C       -4.39640        -8.73825        -2.57785
   C       -4.77542        -8.40046        -1.26999
   C       -4.70566        -7.10230        -0.81362
   C       -4.53065       -10.06979        -3.11422
   C       -5.25978       -11.07294        -2.58381
   C       -5.43215       -12.35339        -3.18348
   N       -6.32099       -13.26145        -2.68138
   C       -6.34855       -14.37781        -3.46558
   C       -5.42600       -14.18845        -4.49224
   C       -4.85927       -12.93159        -4.31592
   C       -7.21770       -15.43753        -3.23624
   C       -8.01976       -16.33274        -3.06347
   C       -8.98131       -17.32207        -2.89239
   C       -9.24520       -18.25890        -3.83114
   C      -10.27762       -19.23433        -3.73689
   C      -11.16174       -19.50156        -2.71419
   C      -12.08510       -20.50289        -3.02333
   C      -11.93409       -21.03190        -4.28464
   S      -10.59780       -20.27238        -5.09797
   C      -12.72843       -22.04090        -4.94477
   C      -13.97757       -22.41396        -4.42609
   C      -14.72921       -23.35313        -5.08753
   C      -14.26123       -23.94789        -6.27121
   C      -13.02593       -23.58971        -6.78933
   C      -12.27499       -22.64086        -6.12511
   C      -15.26374       -24.88072        -6.74488
   C      -16.34963       -24.85875        -5.85528
   C      -16.09741       -23.88445        -4.72824
   C      -16.08416       -24.59483        -3.36243
   C      -15.06330       -25.72426        -3.29551
   C      -17.14875       -22.75918        -4.71557
   C      -17.22165       -22.00394        -6.03721
   C      -17.44811       -25.65430        -6.07515
   C      -17.49078       -26.49137        -7.19787
   C      -16.39946       -26.50474        -8.07156
   C      -15.29015       -25.71015        -7.85572
   C      -18.67547       -27.31318        -7.40359
   C      -18.94688       -28.07547        -8.45699
   H       -3.39276         4.80653        -1.01624
   H       -2.71209         5.68667         1.16731
   H       -2.57208         1.72081         2.80436
   H       -3.78946        -0.24274        -3.00651
   H       -3.19655        -2.31569        -3.73783
   H       -4.90180        -4.29331         0.48225
   H       -4.68093        -1.86662         0.26377
   H       -3.81718        -5.84280        -5.68956
   H       -3.65741        -4.09452        -5.51050
   H       -5.95912        -5.78112        -4.41045
   H       -6.02415        -4.76005        -5.84894
   H       -5.81383        -4.02936        -4.25747
   H       -1.34307        -5.21118        -2.85835
   H       -1.51017        -4.23714        -4.31867
   H       -1.38820        -7.28641        -4.19761
   H       -0.12446        -6.19753        -4.75866
   H       -1.61419        -6.34914        -5.68232
   H       -3.60680        -7.98923        -4.42684
   H       -5.13133        -9.17205        -0.60467
   H       -5.01962        -6.85730         0.19017
   H       -4.03670       -10.24186        -4.06106
   H       -5.80446       -10.91687        -1.66107
   H       -6.90248       -13.11726        -1.87199
   H       -5.20847       -14.89404        -5.26940
   H       -4.10973       -12.48456        -4.93792
   H       -9.54642       -17.28534        -1.97012
   H       -8.66523       -18.26200        -4.74458
   H      -11.14405       -18.98928        -1.76877
   H      -12.83669       -20.83597        -2.33006
   H      -14.34925       -21.94917        -3.52591
   H      -12.65567       -24.03960        -7.69832
   H      -11.31132       -22.34924        -6.51838
   H      -17.08124       -24.99525        -3.16654
   H      -15.86226       -23.85864        -2.58656
   H      -15.27697       -26.47892        -4.04921
   H      -15.09052       -26.19724        -2.31641
   H      -14.05869       -25.34396        -3.46728
   H      -16.90508       -22.06054        -3.91207
   H      -18.12505       -23.19553        -4.49342
   H      -16.26505       -21.54010        -6.26762
   H      -17.97838       -21.22455        -5.98233
   H      -17.47976       -22.67848        -6.85059
   H      -18.28625       -25.63871        -5.39203
   H      -16.41877       -27.15372        -8.93329
   H      -14.45751       -25.73672        -8.54317
   H      -19.39758       -27.26636        -6.59666
   H      -18.28536       -28.16326        -9.30155
   H      -19.85864       -28.64507        -8.51395
*
