# ORCA input file
# SCF done       -189.248785659455          0.000683520834
! CAM-B3LYP def2-SVP def2/J RIJCOSX Grid4 TightSCF
%maxcore 5000
%tddft
    Mode sTDDFT
    Ethresh 5.0
    maxcore 5000
end

%pal
  nprocs 6
  end
* xyz 0 1
   C       -1.28451        -9.12128        -7.88725
   C       -0.76095        -7.88908        -7.81554
   C       -1.27481        -6.67971        -8.39288
   C       -0.51830        -5.58690        -8.14727
   C        0.64102        -5.84714        -7.36182
   S        0.74184        -7.53456        -6.94613
   C        1.59521        -4.93816        -6.94609
   C        1.65709        -3.55454        -7.21045
   C        2.74056        -2.95610        -6.64207
   C        3.58152        -3.82683        -5.90140
   S        2.95587        -5.45153        -5.95916
   C        4.70995        -3.36525        -5.24882
   C        5.66380        -3.99751        -4.44473
   C        5.71778        -5.38059        -4.10971
   C        6.73712        -5.91805        -3.23769
   N        6.63455        -7.19090        -2.82293
   C        5.70805        -7.96511        -3.32474
   C        4.79336        -7.47725        -4.30738
   N        4.80468        -6.19674        -4.62486
   C        3.85291        -8.34213        -4.90661
   N        3.10754        -9.08562        -5.36272
   C        5.62365        -9.30496        -2.86842
   N        5.55866       -10.39614        -2.52592
   C        7.79416        -5.13069        -2.74058
   C        7.76530        -3.76116        -3.08216
   C        6.71884        -3.20778        -3.90256
   N        6.88686        -1.90568        -4.11373
   S        8.23309        -1.42470        -3.37211
   N        8.67211        -2.83992        -2.75469
   C        8.83359        -5.69504        -1.92208
   C        9.34479        -5.00730        -0.80109
   C       10.42195        -5.54338        -0.00482
   N       11.02118        -4.74991         0.89288
   C       10.51827        -3.57542         1.16169
   C        9.27509        -3.16875         0.56237
   N        8.75859        -3.86685        -0.41240
   C        8.61180        -1.99847         1.00126
   N        8.10688        -1.03640         1.36635
   C       11.19507        -2.72212         2.06483
   N       11.70963        -2.01842         2.80891
   C       10.91303        -6.85217        -0.19952
   C       10.37290        -7.55573        -1.29316
   C        9.37776        -6.97072        -2.16275
   N        9.06408        -7.79022        -3.17163
   S        9.86995        -9.16196        -3.00055
   N       10.67989        -8.80195        -1.66776
   C       11.90498        -7.42307         0.67019
   C       12.93838        -8.24362         0.17611
   C       13.86773        -8.92378         1.04834
   N       14.75140        -9.76764         0.52663
   C       14.82081        -9.94473        -0.77889
   C       14.00647        -9.14708        -1.63987
   N       13.10448        -8.33524        -1.15281
   C       14.16723        -9.21936        -3.04682
   N       14.30054        -9.30754        -4.18113
   C       15.72382       -10.88861        -1.31306
   N       16.44003       -11.64338        -1.79664
   C       13.86136        -8.72678         2.45864
   C       12.85922        -7.83211         2.93441
   C       11.89307        -7.20964         2.06622
   N       11.00889        -6.48667         2.75448
   S       11.38015        -6.54394         4.31536
   N       12.66069        -7.51471         4.21031
   C       14.69960        -9.33951         3.39544
   C       15.71480       -10.27095         3.27546
   C       16.41565       -10.75879         4.40890
   C       17.37196       -11.68865         4.13299
   C       17.47215       -11.97779         2.75672
   S       16.32006       -11.02880         1.82863
   C       18.31983       -12.87034         2.12856
   C       19.29824       -13.70885         2.73547
   C       19.97902       -14.48346         1.86179
   C       19.58226       -14.30973         0.49344
   S       18.29223       -13.09832         0.40319
   C       20.06978       -14.93256        -0.58908
   H       -2.19807        -9.30316        -8.42617
   H       -0.80852        -9.96108        -7.41463
   H       -2.18638        -6.68431        -8.96361
   H       -0.74732        -4.59637        -8.49802
   H        0.92125        -3.03766        -7.80057
   H        2.96581        -1.90722        -6.72585
   H        4.89490        -2.30302        -5.36645
   H       14.49640        -9.02413         4.41309
   H       16.18400       -10.40429         5.39813
   H       17.98945       -12.15981         4.87703
   H       19.45841       -13.70482         3.79893
   H       20.75409       -15.18007         2.12772
   H       20.85508       -15.66288        -0.49975
   H       19.69563       -14.72024        -1.57400
*
