# ORCA input file
# SCF done       -182.119588723905          0.000659872234
! CAM-B3LYP def2-SVP def2/J RIJCOSX Grid4 TightSCF
%maxcore 5000
%tddft
    Mode sTDDFT
    Ethresh 5.0
    maxcore 5000
end

%pal
  nprocs 6
  end
* xyz 0 1
   C        6.04214         2.05953         2.73084
   C        5.76927         1.43358         1.57816
   C        5.69496         2.00443         0.26321
   C        5.39982         1.11839        -0.71288
   C        5.21835        -0.21726        -0.25330
   S        5.43321        -0.30229         1.47899
   C        4.91988        -1.32656        -1.01140
   C        4.72010        -1.41172        -2.40888
   C        4.44489        -2.66849        -2.84941
   C        4.41934        -3.66140        -1.83446
   S        4.74674        -2.91210        -0.28355
   C        4.06927        -4.97390        -2.05677
   C        3.99117        -6.06552        -1.17979
   S        2.87296        -7.33962        -1.60626
   C        3.12455        -8.21755        -0.12910
   C        4.13615        -7.60384         0.62425
   C        4.63410        -6.39046         0.03124
   C        5.72226        -5.74149         0.62602
   C        6.28439        -6.23397         1.77833
   N        7.26528        -5.41928         2.44702
   O        7.98988        -4.73954         1.75362
   O        7.24032        -5.41712         3.65833
   C        5.82197        -7.45337         2.33768
   N        6.54334        -8.12636         3.38886
   O        7.74773        -8.00820         3.39689
   O        5.89552        -8.82223         4.14090
   C        4.77085        -8.12215         1.76437
   C        2.32466        -9.34979         0.14734
   C        2.05062        -9.83717         1.38569
   C        1.24513       -10.96918         1.65065
   C        0.84238       -11.41559         2.89516
   C        0.03858       -12.55188         2.84724
   C       -0.18648       -13.01887         1.56973
   S        0.61609       -12.01105         0.40229
   C       -0.94791       -14.17380         1.16144
   C       -0.76252       -14.73243        -0.11196
   C       -1.47084       -15.85207        -0.46999
   C       -2.39313       -16.43008         0.41991
   C       -2.59734       -15.87443         1.67464
   C       -1.87303       -14.75765         2.03735
   C       -2.97655       -17.59286        -0.21122
   C       -2.40375       -17.74608        -1.48622
   C       -1.41122       -16.63854        -1.75858
   C       -1.84671       -15.77858        -2.95977
   C       -3.24024       -15.18609        -2.78831
   C        0.00169       -17.19690        -2.00893
   C        0.50810       -18.05931        -0.85906
   C       -2.75973       -18.79661        -2.29468
   C       -3.71402       -19.72444        -1.84706
   C       -4.29865       -19.53583        -0.58556
   C       -3.93529       -18.49005         0.23695
   C       -4.11473       -20.87086        -2.62600
   C       -3.47960       -21.36588        -3.70955
   C       -3.87888       -22.52853        -4.43035
   C       -3.17259       -23.10947        -5.45134
   C       -3.87241       -24.27196        -5.90659
   C       -5.09973       -24.34367        -5.07608
   C       -5.09243       -23.31532        -4.20475
   O       -6.00785       -25.32776        -5.25285
   C       -7.13303       -25.29200        -4.40861
   C       -3.49900       -25.14845        -6.88046
   C       -4.20192       -26.32593        -7.33384
   C       -3.47287       -26.90797        -8.30990
   C       -2.26170       -26.14274        -8.54180
   C       -2.26450       -25.08877        -7.69626
   O       -1.35709       -24.09727        -7.53028
   C       -0.21995       -24.16197        -8.35627
   H        6.23841         3.11708         2.74917
   H        6.07373         1.53187         3.66648
   H        5.87011         3.05449         0.11041
   H        5.30723         1.36991        -1.75441
   H        4.78225        -0.54813        -3.04602
   H        4.26313        -2.92305        -3.87875
   H        3.70020        -5.17594        -3.05634
   H        6.14454        -4.84803         0.19737
   H        4.49359        -9.08622         2.16022
   H        1.84329        -9.81184        -0.70597
   H        2.41129        -9.32098         2.26413
   H        1.12974       -10.92201         3.80657
   H       -0.34780       -13.03452         3.72646
   H       -0.04932       -14.28196        -0.78777
   H       -3.30947       -16.30798         2.36062
   H       -2.03351       -14.31544         3.00830
   H       -1.82497       -16.39796        -3.85890
   H       -1.12325       -14.97108        -3.09149
   H       -3.98116       -15.97425        -2.67382
   H       -3.50320       -14.59030        -3.65937
   H       -3.28056       -14.54683        -1.90905
   H        0.68645       -16.36049        -2.16430
   H       -0.01481       -17.78961        -2.92594
   H        0.55921       -17.48165         0.06120
   H        1.50294       -18.43661        -1.08400
   H       -0.15296       -18.90742        -0.69514
   H       -2.32050       -18.90619        -3.27438
   H       -5.04198       -20.24411        -0.24741
   H       -4.38894       -18.37336         1.20999
   H       -4.98830       -21.39038        -2.25526
   H       -2.57583       -20.89284        -4.07054
   H       -2.23698       -22.77748        -5.85394
   H       -5.83696       -23.07840        -3.46995
   H       -7.74893       -26.14642        -4.68377
   H       -7.70283       -24.36795        -4.55014
   H       -6.84016       -25.37429        -3.35698
   H       -5.14227       -26.64865        -6.93659
   H       -3.72142       -27.80207        -8.85321
   H       -1.51845       -26.40607        -9.27024
   H       -0.49633       -24.10027        -9.41374
   H        0.33799       -25.08853        -8.18734
   H        0.40115       -23.30814        -8.09058
*
