# ORCA input file
# SCF done       -166.025715680274          0.000448545072
! CAM-B3LYP def2-SVP def2/J RIJCOSX Grid4 TightSCF
%maxcore 5000
%tddft
    Mode sTDDFT
    Ethresh 5.0
    maxcore 5000
end

%pal
  nprocs 6
  end
* xyz 0 1
   C       -3.26562         0.63266         0.85715
   S       -4.44909        -0.31809         0.10886
   C       -5.33664        -0.50001         1.58731
   C       -4.70303         0.15222         2.65188
   C       -3.50215         0.81538         2.20524
   C       -2.68478         1.56540         3.09526
   C       -1.45193         2.24575         2.59047
   C       -3.07129         1.62815         4.40227
   C       -4.22296         0.95940         4.85393
   C       -5.03989         0.22419         4.03383
   C       -6.21858        -0.47951         4.61759
   C       -6.53467        -1.26821         1.37113
   N       -7.49114        -1.40721         2.28923
   C       -8.54995        -2.12198         1.95685
   C       -8.70032        -2.71412         0.71136
   C       -7.65685        -2.50590        -0.20122
   N       -6.59396        -1.78953         0.14294
   C       -7.68981        -3.05473        -1.54297
   C       -6.68712        -2.85150        -2.41928
   C       -6.65819        -3.36599        -3.74571
   O       -7.67980        -4.11753        -4.23428
   C       -5.69926        -3.24476        -4.73402
   C       -4.39006        -2.66621        -5.05854
   O       -3.63370        -1.99331        -4.41044
   N       -4.16994        -3.07959        -6.37269
   C       -5.18156        -3.85668        -6.93534
   O       -5.17175        -4.30642        -8.05213
   C       -6.17170        -3.95707        -5.86187
   C       -7.40541        -4.48740        -5.51851
   C       -8.31461        -5.27852        -6.25213
   C       -9.49499        -5.71152        -5.71790
   C      -10.44537        -6.49805        -6.37861
   C      -11.61470        -6.90474        -5.77500
   C      -12.65573        -7.69343        -6.31740
   C      -13.68924        -7.92426        -5.45539
   C      -13.51344        -7.32907        -4.18861
   S      -12.00191        -6.46704        -4.12089
   C      -14.34779        -7.35695        -3.08007
   C      -15.59931        -7.97991        -2.91569
   C      -16.14108        -7.79817        -1.67288
   C      -15.34210        -7.02632        -0.80272
   S      -13.87539        -6.53231        -1.61432
   C      -15.61092        -6.67397         0.50936
   C      -14.72629        -5.90717         1.25641
   C      -14.90546        -5.50818         2.56687
   C      -13.99563        -4.71287         3.34451
   C      -12.78225        -4.19901         2.94195
   C      -11.93838        -3.41651         3.75265
   N      -11.18936        -2.77054         4.33838
   C      -12.18635        -4.35810         1.67734
   N      -11.60614        -4.42074         0.68558
   C      -14.58580        -4.52892         4.66877
   C      -15.83414        -5.19675         4.70504
   C      -16.08139        -5.83576         3.39351
   O      -17.05823        -6.48951         3.08315
   C      -16.63712        -5.20474         5.81775
   C      -16.18751        -4.51875         6.95226
   C      -14.93889        -3.85710         6.90747
   C      -14.12507        -3.85057         5.78013
   S      -14.57708        -3.07163         8.41511
   C      -16.08970        -3.63464         9.07500
   C      -16.82780        -4.37354         8.21346
  Br      -16.55178        -3.19228        10.83849
   H       -2.44601         1.01627         0.28321
   H       -1.70267         2.95890         1.80607
   H       -0.75841         1.51736         2.17164
   H       -0.95314         2.77673         3.39711
   H       -2.48258         2.18837         5.11431
   H       -4.46648         1.02639         5.90477
   H       -6.24263        -0.34321         5.69611
   H       -6.17651        -1.54300         4.39529
   H       -7.14330        -0.10366         4.18850
   H       -9.30482        -2.21785         2.72761
   H       -9.57097        -3.29690         0.45917
   H       -8.55938        -3.63856        -1.80994
   H       -5.83047        -2.26256        -2.12353
   H       -3.33281        -2.83391        -6.88169
   H       -8.02347        -5.52489        -7.26219
   H       -9.71792        -5.42549        -4.69727
   H      -10.26191        -6.80222        -7.39991
   H      -12.61041        -8.06609        -7.32542
   H      -14.56309        -8.50247        -5.69648
   H      -16.06776        -8.54054        -3.70479
   H      -17.08902        -8.19638        -1.35756
   H      -16.53484        -7.00893         0.95729
   H      -13.81540        -5.59870         0.75697
   H      -17.58356        -5.72233         5.81513
   H      -13.18146        -3.33114         5.79630
   H      -17.78488        -4.79870         8.45476
*
