# ORCA input file
# SCF done       -223.529969358872          0.000530325522
! CAM-B3LYP def2-SVP def2/J RIJCOSX Grid4 TightSCF
%maxcore 5000
%tddft
    Mode sTDDFT
    Ethresh 5.0
    maxcore 5000
end

%pal
  nprocs 6
  end
* xyz 0 1
   C       -3.17483         6.73920         5.96707
   C       -3.36449         5.43904         6.36235
   C       -2.71498         4.84947         7.46536
   N       -2.21632         4.32221         8.35521
   C       -4.17492         4.50358         5.68536
   N       -4.78433         3.68308         5.16189
   C       -2.22530         7.67599         6.56203
   C       -2.18441         8.84331         5.76036
   C       -1.37522         9.91408         6.04943
   C       -0.57101         9.83238         7.19166
   C       -0.62225         8.66563         7.98945
   C       -1.43747         7.57915         7.69221
   S        0.44471         8.77870         9.35628
   C        0.93902        10.37000         8.84319
   C        0.33780        10.79672         7.70759
  Br        2.20042        11.31950         9.85621
   C       -3.12779         8.68807         4.63766
   O       -3.31564         9.49319         3.73877
   C       -3.79383         7.40364         4.84094
   C       -4.91937         6.96757         4.17419
   C       -5.57480         7.51574         3.07517
   S       -5.01653         8.85286         2.10894
   C       -6.36102         8.75880         1.04355
   C       -7.23470         7.71048         1.39252
   C       -6.79811         7.01195         2.55130
   C       -7.58229         5.96542         3.04352
   C       -8.74196         5.57712         2.40211
   C       -9.52611         4.48171         3.06460
   O       -9.23487         4.08007         4.15963
   O      -10.56307         3.97463         2.39834
   C       -9.11743         6.22147         1.19186
   O      -10.22389         5.79505         0.51181
   C       -8.37432         7.26864         0.70355
   C       -6.51865         9.71542        -0.00412
   C       -7.71772        10.16010        -0.42737
   C       -7.91949        11.02859        -1.56427
   C       -7.21570        10.82443        -2.71597
   S       -7.72594        11.78269        -4.04568
   C       -8.91493        12.54695        -3.03545
   C       -8.91129        12.06786        -1.71617
   C       -9.77080        12.66552        -0.76391
   C       -9.72250        12.19340         0.66557
   C      -10.76303        11.10201         0.93492
   C      -10.64279        13.67442        -1.14931
   C      -11.54093        14.35942        -0.15569
   C      -10.87654        15.62778         0.38612
   C      -10.68553        14.10619        -2.49516
   C      -11.58225        15.02630        -3.15301
   C      -11.37152        15.05994        -4.50470
   S      -10.07491        14.08504        -5.05242
   C       -9.81666        13.52073        -3.42932
   C      -12.63955        15.84632        -2.59541
   C      -13.85311        15.86444        -3.19595
   C      -14.96095        16.68778        -2.89871
   C      -16.15359        16.49405        -3.54824
   C      -17.32212        17.29446        -3.60408
   C      -18.26757        16.84987        -4.48328
   C      -17.91545        15.64850        -5.13727
   S      -16.36001        15.09216        -4.58835
   C      -18.52080        14.91708        -6.14638
   C      -19.58480        15.18368        -7.02790
   C      -19.66589        14.29320        -8.06306
   C      -18.67482        13.28097        -8.05120
   S      -17.70463        13.44489        -6.62348
   C      -18.50665        12.25813        -8.97340
   C      -17.53721        11.26061        -8.99359
   C      -16.33019        11.10583        -8.32129
   C      -15.39723        12.00835        -7.72742
   C      -15.23273        13.34881        -8.02058
   C      -14.28911        14.17981        -7.39634
   N      -13.55396        14.90702        -6.89294
   C      -15.96496        14.00406        -9.02689
   N      -16.54645        14.56453        -9.84347
   C      -14.52261        11.23661        -6.84516
   C      -14.76584         9.86042        -7.06678
   C      -15.84528         9.72612        -8.07649
   O      -16.27123         8.70005        -8.55951
   C      -14.10695         8.87579        -6.37555
   C      -13.18722         9.27209        -5.39516
   C      -12.96917        10.64873        -5.16887
   C      -13.61498        11.64686        -5.89089
   S      -11.83376        10.91823        -3.87933
   C      -11.67323         9.19722        -3.67281
   C      -12.41958         8.45344        -4.51835
  Br      -10.54910         8.54485        -2.33514
   H       -1.36313        10.78820         5.41744
   H       -1.44365         6.71372         8.33347
   H        0.52508        11.75171         7.25156
   H       -5.39557         6.07891         4.56865
   H       -7.31435         5.42451         3.93843
   H      -10.70007         4.41926         1.54415
   H      -10.34963         6.33532        -0.27982
   H       -8.65870         7.72516        -0.23332
   H       -5.60983        10.14487        -0.40395
   H       -8.60696         9.81950         0.07716
   H       -6.44633        10.09277        -2.86822
   H       -9.89390        13.02754         1.34502
   H       -8.72423        11.81037         0.87938
   H      -11.77205        11.49841         0.84911
   H      -10.63570        10.69879         1.93695
   H      -10.67053        10.28931         0.21846
   H      -11.78371        13.70087         0.67532
   H      -12.48102        14.61447        -0.64909
   H       -9.98139        15.37653         0.95069
   H      -11.55818        16.16373         1.04311
   H      -10.57878        16.28699        -0.42618
   H      -11.90523        15.65301        -5.22202
   H      -12.43206        16.47938        -1.74545
   H      -14.00387        15.16831        -4.01267
   H      -14.86084        17.50217        -2.19498
   H      -17.41129        18.19750        -3.02568
   H      -19.19847        17.35110        -4.68096
   H      -20.22702        16.03802        -6.90895
   H      -20.38494        14.35807        -8.86006
   H      -19.28482        12.18428        -9.72253
   H      -17.80006        10.38068        -9.57547
   H      -14.30254         7.83241        -6.56730
   H      -13.41907        12.68531        -5.68166
   H      -12.43980         7.37842        -4.52584
*
