# ORCA input file
# SCF done       -194.607476287985          0.000811742420
! CAM-B3LYP def2-SVP def2/J RIJCOSX Grid4 TightSCF
%maxcore 5000
%tddft
    Mode sTDDFT
    Ethresh 5.0
    maxcore 5000
end

%pal
  nprocs 6
  end
* xyz 0 1
   C       -9.35492        16.61625        -4.78569
   C       -9.04340        17.30870        -5.92773
   C       -8.10225        16.90067        -6.89542
   N       -7.35395        16.63419        -7.72489
   C       -9.63879        18.53250        -6.30077
   N      -10.08970        19.52293        -6.66634
   C      -10.30770        17.03888        -3.76810
   C      -10.35972        16.05667        -2.74745
   C      -11.17199        16.17406        -1.64591
   C      -11.96389        17.32188        -1.53834
   C      -11.90526        18.29928        -2.56193
   C      -11.09008        18.17662        -3.67961
   S      -12.96659        19.63416        -2.23224
   C      -13.46657        18.87467        -0.74431
   C      -12.87109        17.68162        -0.50509
  Br      -14.72865        19.72590         0.34922
   C       -9.44556        14.95085        -3.07930
   O       -9.36775        13.88100        -2.52211
   C       -8.76697        15.36378        -4.34523
   C       -7.85797        14.60397        -5.01191
   C       -7.14699        13.51840        -4.43451
   O       -6.65397        12.54531        -5.25111
   C       -6.72418        13.25579        -3.14580
   C       -6.66917        13.78902        -1.77396
   O       -7.06844        14.82230        -1.30892
   N       -5.95046        12.82050        -1.08014
   C       -5.48382        11.75324        -1.84572
   O       -4.83101        10.83294        -1.43198
   C       -5.97173        12.06141        -3.19512
   C       -5.95600        11.64443        -4.51450
   C       -5.35724        10.50605        -5.12077
   C       -5.42851        10.25377        -6.44652
   C       -4.84006         9.10315        -7.05611
   C       -4.89435         8.77418        -8.35926
   C       -5.55391         9.57671        -9.43121
   C       -4.23032         7.50481        -8.84810
   N       -3.07098         7.79366        -9.66036
   C       -3.13110         8.00875       -10.98454
   C       -2.11891         8.53244       -11.73495
   C       -2.22892         8.72819       -13.11810
   C       -1.24356         9.24182       -13.92436
   C       -1.33445         9.51245       -15.30872
   C       -0.19553        10.02255       -15.85566
   C        0.86468        10.16546       -14.93309
   S        0.36590         9.66000       -13.34359
   C        2.15435        10.59916       -15.19545
   C        2.70201        11.03044       -16.41823
   C        4.03574        11.31216       -16.34951
   C        4.61839        11.08069       -15.08293
   S        3.39006        10.58120       -13.95506
   C        5.95818        11.29252       -14.78095
   C        6.67312        11.02722       -13.62359
   C        6.40688        10.24429       -12.50643
   C        7.13135        10.55828       -11.25538
   O        8.04331        11.34586       -11.11271
   C        6.48499         9.73820       -10.20455
   C        6.72452         9.70723        -8.86330
   C        5.94968         8.84926        -8.04709
   C        4.93969         8.04351        -8.64548
   C        4.16367         7.20029        -7.82668
   C        4.38215         7.15537        -6.47811
   C        5.38436         7.94714        -5.88859
   C        6.15315         8.77757        -6.65614
   F        5.57903         7.88257        -4.56093
   F        3.63392         6.35213        -5.70217
   C        4.72660         8.08726       -10.04413
   C        5.49263         8.91936       -10.81181
   C        5.53046         9.14860       -12.25713
   C        4.95195         8.31349       -13.19636
   C        5.29473         8.33621       -14.55903
   N        5.57046         8.30951       -15.67441
   C        4.03296         7.29643       -12.89039
   N        3.24038         6.48352       -12.70723
   H      -11.18748        15.40777        -0.88730
   H      -11.08429        18.94692        -4.43252
   H      -13.06279        17.07909         0.36387
   H       -7.62050        14.80690        -6.04771
   H       -5.75587        12.90015        -0.09189
   H       -4.83596         9.84541        -4.44347
   H       -5.96604        10.95458        -7.06805
   H       -4.32393         8.43585        -6.37667
   H       -4.84844         9.77461       -10.23932
   H       -5.92887        10.52621        -9.06720
   H       -6.38811         9.01502        -9.85321
   H       -4.93504         6.93015        -9.45661
   H       -3.91631         6.88874        -8.00223
   H       -2.25719         8.14141        -9.17267
   H       -4.04805         7.69199       -11.46488
   H       -1.19341         8.82092       -11.25554
   H       -3.16659         8.47119       -13.59476
   H       -2.23977         9.32273       -15.85828
   H       -0.08406        10.28354       -16.89217
   H        2.11170        11.11452       -17.31254
   H        4.62968        11.64129       -17.18308
   H        6.50736        11.80077       -15.56464
   H        7.60762        11.57408       -13.52734
   H        7.49297        10.32673        -8.42649
   H        3.39569         6.58145        -8.26407
   H        6.91759         9.37864        -6.18917
   H        3.95789         7.46299       -10.47056
*
