# ORCA input file
# SCF done       -151.143744935766          0.000919241914
! CAM-B3LYP def2-SVP def2/J RIJCOSX Grid4 TightSCF
%maxcore 5000
%tddft
    Mode sTDDFT
    Ethresh 5.0
    maxcore 5000
end

%pal
  nprocs 6
  end
* xyz 0 1
   C      -10.80747         3.51847        -4.87614
   C      -10.64922         2.51543        -5.79205
   C      -11.46305         2.34240        -6.93259
   N      -12.08776         2.14736        -7.87527
   C       -9.65425         1.51659        -5.72367
   N       -8.87885         0.67068        -5.73070
   C      -11.82008         4.55952        -4.89870
   C      -11.63937         5.42301        -3.78436
   C      -12.45964         6.50044        -3.54273
   C      -13.50638         6.73831        -4.43851
   C      -13.67814         5.87340        -5.54969
   C      -12.85158         4.78636        -5.79524
   S      -15.03016         6.35424        -6.52678
   C      -15.34037         7.68914        -5.44253
   C      -14.47842         7.77387        -4.40255
  Br      -16.77438         8.83874        -5.79264
   C      -10.47875         4.97532        -3.00232
   O       -9.98254         5.50047        -2.03328
   C       -9.99148         3.73287        -3.68254
   C       -8.97145         3.01080        -3.19963
   C       -8.32387         3.37079        -1.92850
   N       -8.98648         3.11101        -0.81420
   C       -8.40648         3.51126         0.31925
   N       -7.20058         4.08491         0.36271
   C       -6.60319         4.22838        -0.80153
   N       -7.10347         3.90107        -1.97807
   C       -9.19982         3.29285         1.51033
   C       -8.95432         3.69950         2.76260
   C       -7.75803         4.45685         3.21907
   C      -10.00956         3.46721         3.82291
   N      -10.78743         4.67195         3.99603
   C      -10.59562         5.55904         4.98932
   C      -11.11358         6.81917         4.99808
   C      -10.99807         7.69547         6.08771
   C      -11.51618         8.96594         6.11709
   C      -11.46952         9.88963         7.18712
   C      -12.08909        11.07570         6.93061
   C      -12.65200        11.15805         5.63694
   S      -12.37825         9.67866         4.75576
   C      -13.33492        12.22006         5.07014
   C      -13.66157        13.45979         5.65352
   C      -14.34647        14.29158         4.81953
   C      -14.59179        13.75790         3.52711
   S      -13.92260        12.14710         3.41940
   C      -15.26423        14.44274         2.54119
   C      -15.56739        14.07869         1.21784
   S      -16.48510        15.21562         0.24800
   C      -16.46908        14.20593        -1.14391
   C      -15.79388        13.05220        -0.88117
   C      -15.28625        12.96422         0.43420
   O      -14.58699        11.86414         0.84479
   C      -14.36896        10.84967        -0.00608
   O      -13.76429         9.87212         0.34898
   C      -14.90398        10.96186        -1.43507
   O      -14.70817        10.08321        -2.23272
   O      -15.59872        12.05007        -1.79724
   H      -12.30587         7.14179        -2.68897
   H      -13.02232         4.15679        -6.65265
   H      -14.52156         8.53144        -3.64088
   H       -8.57565         2.14035        -3.70287
   H       -5.60969         4.66079        -0.79608
   H      -10.11562         2.75920         1.29153
   H       -7.15273         4.76642         2.37422
   H       -7.15464         3.82426         3.87084
   H       -8.06594         5.32882         3.79681
   H       -9.54669         3.21414         4.77934
   H      -10.68011         2.65498         3.52585
   H      -11.25144         5.01233         3.16445
   H      -10.03652         5.19171         5.84041
   H      -11.65574         7.16999         4.13023
   H      -10.47478         7.35118         6.97062
   H      -10.98323         9.64666         8.11583
   H      -12.15321        11.89005         7.62966
   H      -13.39097        13.70706         6.66453
   H      -14.68378        15.27753         5.08643
   H      -15.62057        15.42611         2.82058
   H      -16.94080        14.50442        -2.05541
*
