# ORCA input file
# SCF done       -161.174860960329          0.010746836687
! CAM-B3LYP def2-SVP def2/J RIJCOSX Grid4 TightSCF
%maxcore 5000
%tddft
    Mode sTDDFT
    Ethresh 5.0
    maxcore 5000
end

%pal
  nprocs 6
  end
* xyz 0 1
   C       -6.66095         0.15001         2.69895
   C       -5.76681        -0.58001         1.95166
   C       -5.88552        -1.95167         1.66332
   N       -5.92715        -3.05774         1.35989
   C       -4.57743        -0.04725         1.41804
   N       -3.56864         0.30651         0.99998
   C       -7.78905        -0.39890         3.44466
   C       -8.34696         0.63569         4.23108
   C       -9.44140         0.44161         5.03419
   C      -10.00854        -0.83796         5.06575
   C       -9.42787        -1.86886         4.29550
   C       -8.31759        -1.67253         3.48208
   S      -10.29194        -3.36724         4.48007
   C      -11.41710        -2.59113         5.56062
   C      -11.15355        -1.28098         5.78309
  Br      -12.83608        -3.57941         6.28965
   C       -7.58072         1.88387         4.01773
   O       -7.80759         2.96292         4.53182
   C       -6.56810         1.55361         3.00076
   C       -5.77681         2.47532         2.34863
   C       -5.46679         3.78404         2.76127
   S       -5.20872         4.99220         1.52084
   C       -5.07897         6.22776         2.70649
   C       -5.18032         5.76803         3.98259
   C       -5.07383         6.63446         5.19394
   C       -5.35529         4.35454         4.03966
   C       -5.32933         3.60359         5.25148
   C       -4.90653         2.30963         5.29615
   C       -5.13621         1.40280         6.34231
   C       -4.98078         0.05530         6.13367
   C       -5.33255        -0.95709         7.02679
   C       -5.32232        -2.29406         6.68970
   C       -5.60552        -3.39415         7.52681
   C       -5.50429        -4.60849         6.91227
   C       -5.15008        -4.53273         5.55007
   S       -4.95045        -2.85927         5.06797
   C       -4.96354        -5.57462         4.65941
   C       -5.07620        -6.95958         4.93308
   C       -4.82857        -7.75202         3.85841
   C       -4.51549        -7.04127         2.66809
   S       -4.53695        -5.31065         2.98805
   C       -4.24188        -7.59375         1.44918
   C       -3.97707        -6.85268         0.26996
   C       -3.65842        -7.36003        -0.94056
   C       -3.51805        -8.80975        -1.26572
   C       -3.45973        -6.43571        -2.11886
   N       -4.56212        -6.53624        -3.05144
   C       -4.62331        -7.48118        -4.00876
   C       -5.74451        -7.80318        -4.69864
   C       -5.80214        -8.75669        -5.75190
   S       -7.27291        -8.95235        -6.65932
   C       -6.59284       -10.17959        -7.65520
   C       -5.29975       -10.43230        -7.31147
   C       -4.84477        -9.63635        -6.23534
   O       -3.60181        -9.71303        -5.66702
   C       -2.62338       -10.54202        -6.03187
   O       -1.58992       -10.52327        -5.41469
   C       -2.75922       -11.50501        -7.20553
   O       -1.84100       -12.20625        -7.52895
   S       -4.27750       -11.62199        -8.11555
   H       -9.85547         1.25027         5.61614
   H       -7.90897        -2.48695         2.90642
   H      -11.74212        -0.64975         6.42080
   H       -5.39931         2.20590         1.36855
   H       -4.92703         7.24095         2.38609
   H       -4.91757         7.67116         4.90710
   H       -4.24294         6.31258         5.82060
   H       -5.98869         6.56508         5.77997
   H       -5.68513         4.09002         6.15057
   H       -4.43323         1.89882         4.40909
   H       -5.56018         1.76016         7.27185
   H       -4.60270        -0.26291         5.16841
   H       -5.64554        -0.69252         8.02885
   H       -5.86259        -3.25501         8.56221
   H       -5.67374        -5.54927         7.40459
   H       -5.33124        -7.32526         5.91171
   H       -4.86479        -8.82699         3.87196
   H       -4.24511        -8.67286         1.40011
   H       -4.04065        -5.77622         0.37726
   H       -3.66345        -9.44732        -0.39984
   H       -2.52537        -9.00301        -1.67335
   H       -4.24244        -9.09521        -2.03029
   H       -2.54216        -6.70064        -2.65238
   H       -3.38665        -5.39843        -1.78314
   H       -5.43359        -6.12638        -2.74630
   H       -3.68320        -7.95585        -4.24526
   H       -6.67508        -7.30292        -4.47108
   H       -7.17019       -10.64225        -8.42691
*
