# ORCA input file
# SCF done       -151.429249276416          0.000400183613
! CAM-B3LYP def2-SVP def2/J RIJCOSX Grid4 TightSCF
%maxcore 5000
%tddft
    Mode sTDDFT
    Ethresh 5.0
    maxcore 5000
end

%pal
  nprocs 6
  end
* xyz 0 1
   C       -3.68042        -1.17636         3.09053
   C       -4.03929        -2.43583         2.66055
   C       -3.30205        -3.60151         2.94263
   N       -2.74499        -4.58816         3.13587
   C       -5.14669        -2.75155         1.85013
   N       -6.00333        -3.11270         1.17247
   C       -2.47041        -0.86070         3.84963
   C       -2.38257         0.54525         3.99345
   C       -1.34845         1.15902         4.65404
   C       -0.35244         0.34562         5.20763
   C       -0.45278        -1.05656         5.06578
   C       -1.49840        -1.67811         4.39194
   S        0.87795        -1.87345         5.83111
   C        1.54088        -0.33782         6.32276
   C        0.80722         0.73153         5.93548
  Br        3.14203        -0.29129         7.30090
   C       -3.55745         1.17389         3.34697
   O       -3.78624         2.36688         3.27835
   C       -4.36850         0.05830         2.83475
   C       -5.61617         0.19138         2.25324
   C       -6.24775         1.38854         1.94866
   C       -7.50901         1.42286         1.37552
   C       -8.20580         2.55421         0.89586
   C       -9.40435         2.26148         0.30826
   C       -9.71614         0.88761         0.32191
   S       -8.44896        -0.02160         1.10768
   C      -10.79391         0.21930        -0.23244
   C      -11.82138         0.71465        -1.06917
   C      -12.61384        -0.26204        -1.58800
   C      -12.26225        -1.57689        -1.17596
   S      -10.94725        -1.49907        -0.02040
   C      -12.71802        -2.74784        -1.71928
   C      -12.26951        -4.03753        -1.35220
   S      -12.12553        -5.29698        -2.56468
   C      -11.28096        -6.35424        -1.47852
   C      -11.25336        -5.80489        -0.20113
   C      -11.78791        -4.49511        -0.13300
   O      -11.88397        -3.77431         1.00010
   C      -10.68861        -6.41232         0.93020
   N      -10.25915        -6.82648         1.91127
   C      -10.77538        -7.62823        -1.85424
   S      -11.08523        -8.95689        -0.76724
   C      -10.36790       -10.07342        -1.82104
   C       -9.86241        -9.47818        -2.95494
   C      -10.06629        -8.05457        -2.98135
   C       -9.48555        -7.29388        -4.03155
   C       -8.82297        -7.96630        -5.05616
   C       -8.71751        -9.38452        -5.04870
   C       -9.20044       -10.12666        -4.02313
   N       -8.26581        -7.29963        -6.11272
   C       -9.51426        -5.83312        -4.03992
   S      -10.20975        -4.95102        -5.38011
   C       -9.85226        -3.45055        -4.65623
   C       -9.23205        -3.59582        -3.44237
   C       -9.03711        -4.96913        -3.08574
   O       -8.46036        -5.39864        -1.94159
   C       -8.83654        -2.50855        -2.64744
   N       -8.51782        -1.62110        -1.99388
   H       -1.30760         2.23329         4.74439
   H       -1.52977        -2.75192         4.31395
   H        1.06988         1.75083         6.15296
   H       -6.15480        -0.71612         2.00632
   H       -5.73643         2.32168         2.13351
   H       -7.79237         3.54374         0.97862
   H      -10.06171         2.99270        -0.12770
   H      -11.92194         1.76195        -1.29105
   H      -13.42368        -0.09127        -2.27557
   H      -13.38675        -2.68495        -2.56767
   H      -11.44978        -4.23613         1.73139
   H      -10.34242       -11.11442        -1.56649
   H       -8.20513        -9.85554        -5.87482
   H       -9.08187       -11.19845        -3.99664
   H       -8.08347        -6.31501        -6.02015
   H       -7.63039        -7.81338        -6.69844
   H      -10.10736        -2.53230        -5.14653
   H       -8.10021        -4.65729        -1.43512
*
