# ORCA input file
# SCF done       -196.633746136028          0.000975420408
! CAM-B3LYP def2-SVP def2/J RIJCOSX Grid4 TightSCF
%maxcore 5000
%tddft
    Mode sTDDFT
    Ethresh 5.0
    maxcore 5000
end

%pal
  nprocs 6
  end
* xyz 0 1
   C      -15.50119         5.86517        -2.04007
   C      -16.58061         5.20857        -1.50933
   C      -17.89982         5.33309        -1.99074
   N      -18.99044         5.39596        -2.34222
   C      -16.49760         4.33116        -0.40952
   N      -16.46297         3.60957         0.48229
   C      -15.53085         6.79233        -3.16936
   C      -14.22372         7.30854        -3.37334
   C      -13.92893         8.23816        -4.34169
   C      -14.96842         8.64966        -5.17929
   C      -16.25831         8.09020        -5.00887
   C      -16.56330         7.17967        -4.00197
   S      -17.36413         8.67831        -6.21073
   C      -16.09702         9.65689        -6.90748
   C      -14.90844         9.56087        -6.26652
  Br      -16.45357        10.65943        -8.44582
   C      -13.31321         6.67094        -2.42643
   O      -12.09365         6.82502        -2.35488
   C      -14.12717         5.77697        -1.59530
   C      -13.55473         5.00096        -0.61278
   N      -12.22665         5.05860        -0.45796
   C      -11.39565         4.38911         0.37086
   S      -11.92008         3.49247         1.75503
   C      -10.25748         3.15675         2.13213
   N       -9.99303         2.38211         3.27112
   O       -8.82898         2.15125         3.53660
   O      -10.95708         2.00148         3.90965
   C       -9.36299         3.69468         1.24607
   C       -9.99617         4.40449         0.20898
   C       -9.39157         5.03271        -0.92340
   C       -8.08543         5.28363        -1.16872
   C       -7.69920         5.96144        -2.35819
   S       -8.92613         6.54925        -3.43810
   C       -7.74267         7.28964        -4.46730
   C       -6.44255         7.07786        -3.96960
   C       -6.41689         6.32242        -2.77925
   C       -5.23373         5.91901        -2.01201
   C       -4.99092         4.66828        -1.64827
   O       -5.43371         7.57893        -4.71337
   C       -4.08979         7.41426        -4.32090
   C       -8.10621         8.02116        -5.60593
   C       -9.41041         8.12090        -6.02965
   C       -9.93858         8.88697        -7.06811
   C      -11.22253         8.68682        -7.62982
   C      -12.18315         7.69787        -7.36686
   C      -13.32310         7.65867        -8.12517
   C      -13.52810         8.57728        -9.17160
   C      -12.61747         9.56527        -9.44157
   C      -11.45547         9.65506        -8.65935
   C      -10.32654        10.50455        -8.76055
   C       -9.35659        10.04628        -7.75521
   C       -8.25767        10.72738        -7.40413
   C      -10.08824        11.56067        -9.62803
   C      -10.96475        12.36324       -10.34087
   C      -10.46072        13.06759       -11.53939
   O       -9.31614        13.08290       -11.94425
   C      -11.64082        13.72189       -12.14501
   C      -11.74651        14.40475       -13.32017
   C      -13.00922        14.91153       -13.70764
   C      -14.13947        14.68560       -12.87112
   C      -15.39677        15.17944       -13.26974
   C      -15.52526        15.87167       -14.44148
   C      -14.40691        16.09813       -15.26582
   C      -13.17399        15.62798       -14.90811
   F      -14.56084        16.78022       -16.41119
   F      -16.72366        16.34274       -14.81798
   C      -13.99536        13.97878       -11.65334
   C      -12.76014        13.51853       -11.29106
   C      -12.31475        12.77366       -10.11067
   C      -13.02553        12.72366        -8.92880
   C      -12.60284        12.11171        -7.74200
   N      -12.35665        11.63280        -6.72421
   C      -14.24425        13.40066        -8.72915
   N      -15.22112        13.95535        -8.48774
   H      -12.93239         8.63335        -4.45947
   H      -17.56564         6.79806        -3.90079
   H      -14.02278        10.10973        -6.53383
   H      -14.11857         4.33370         0.02601
   H      -11.78810         5.73658        -1.12048
   H       -8.30145         3.56141         1.34416
   H      -10.07832         5.34852        -1.69723
   H       -7.30697         5.01333        -0.47139
   H       -4.55748         6.70931        -1.71500
   H       -5.63517         3.85607        -1.94187
   H       -4.12592         4.41016        -1.06233
   H       -3.84189         8.06271        -3.47639
   H       -3.49865         7.71622        -5.18488
   H       -3.86588         6.37507        -4.06997
   H       -7.29448         8.47261        -6.15513
   H      -10.12576         7.50089        -5.49922
   H      -12.01849         6.96876        -6.58756
   H      -14.07092         6.90143        -7.93966
   H      -14.42122         8.49409        -9.77287
   H      -12.77916        10.24559       -10.26302
   H       -7.64255        10.44549        -6.56938
   H       -7.95692        11.61219        -7.93969
   H       -9.04580        11.77845        -9.84669
   H      -10.88261        14.55654       -13.94918
   H      -16.26278        15.01782       -12.64712
   H      -12.32717        15.80908       -15.55142
   H      -14.86997        13.81213       -11.04500
*
