# ORCA input file
# SCF done       -173.160640552383          0.000857881215
! CAM-B3LYP def2-SVP def2/J RIJCOSX Grid4 TightSCF
%maxcore 5000
%tddft
    Mode sTDDFT
    Ethresh 5.0
    maxcore 5000
end

%pal
  nprocs 6
  end
* xyz 0 1
   C       -9.87518       -25.29877         3.12115
   S      -10.11703       -24.07784         1.95102
   C       -9.80040       -22.81540         3.08863
   C       -9.50723       -23.34734         4.33897
   C       -9.56093       -24.78660         4.36107
   C       -9.25889       -25.48020         5.57337
   C       -9.34125       -26.95448         5.71728
   O       -8.61111       -27.58957         6.42756
   O      -10.33352       -27.56539         5.03308
   C       -8.87816       -24.74993         6.66964
   C       -8.86872       -23.34727         6.66220
   C       -9.20428       -22.63987         5.53612
   O       -9.27348       -21.28949         5.51919
   C       -9.75566       -21.45395         2.63724
   S       -8.35656       -20.47455         2.95138
   C       -8.94990       -19.18368         1.95213
   C      -10.17264       -19.52372         1.40594
   C      -10.63533       -20.81200         1.78882
   C      -11.91861       -21.33072         1.33611
   C      -12.74201       -22.06980         2.06663
   O      -10.88042       -18.69661         0.56971
   C      -12.00328       -18.07701         1.16781
   C       -8.15941       -17.99825         1.80911
   C       -8.40980       -17.01539         0.92453
   C       -7.63151       -15.81829         0.72644
   C       -6.91463       -15.12742         1.62080
   C       -6.83542       -15.43287         3.08398
   C       -6.11456       -13.89938         1.22636
   N       -6.04799       -13.63680        -0.18788
   C       -5.43269       -14.44617        -1.07345
   C       -4.55804       -15.44746        -0.76759
   C       -3.96501       -16.32455        -1.69419
   C       -4.31044       -16.57841        -3.00005
   C       -3.66549       -17.50830        -3.85036
   C       -4.24188       -17.65575        -5.07725
   C       -5.38235       -16.84900        -5.27120
   S       -5.68607       -15.88320        -3.85294
   C       -6.20541       -16.77310        -6.38391
   C       -6.10377       -17.47899        -7.59563
   C       -7.09802       -17.18521        -8.48765
   C       -8.02913       -16.23564        -8.02210
   S       -7.60005       -15.71216        -6.41458
   C       -9.13105       -15.74944        -8.70872
   C      -10.01527       -14.82830        -8.17415
   C      -11.13220       -14.26143        -8.76353
   C      -12.16881       -13.66618        -7.90032
   O      -12.08859       -13.43343        -6.70965
   C      -13.34087       -13.45553        -8.77689
   C      -14.58809       -13.00843        -8.45643
   C      -15.57291       -12.92586        -9.46810
   C      -15.23922       -13.31675       -10.79614
   C      -16.22583       -13.24225       -11.79795
   C      -17.47660       -12.79405       -11.47662
   C      -17.82380       -12.40223       -10.17795
   C      -16.87759       -12.47081        -9.19270
   F      -18.42262       -12.72152       -12.43532
   C      -13.93178       -13.76737       -11.10023
   C      -12.99493       -13.82941       -10.10654
   C      -11.58127       -14.21671       -10.12289
   C      -10.81514       -14.31291       -11.26527
   C       -9.40967       -14.37264       -11.28391
   N       -8.26389       -14.37020       -11.37442
   C      -11.33783       -14.24717       -12.56944
   N      -11.70431       -14.22699       -13.65895
   H       -9.92246       -26.32242         2.80618
   H      -10.90800       -26.93135         4.58433
   H       -8.61783       -25.27775         7.57404
   H       -8.61212       -22.81671         7.56854
   H       -9.02091       -20.93610         6.38188
   H      -12.19634       -21.02315         0.33555
   H      -12.50445       -22.35435         3.07860
   H      -13.68689       -22.40993         1.68019
   H      -12.69360       -18.81508         1.58792
   H      -12.49887       -17.52104         0.37433
   H      -11.69073       -17.38703         1.95967
   H       -7.28260       -17.96293         2.43873
   H       -9.23698       -17.14122         0.24034
   H       -7.67617       -15.44719        -0.29039
   H       -5.97222       -16.06193         3.30281
   H       -7.72997       -15.95224         3.41743
   H       -6.72600       -14.51247         3.65586
   H       -5.09519       -14.01528         1.61375
   H       -6.54464       -13.01721         1.71142
   H       -6.73939       -13.00394        -0.55681
   H       -5.63220       -14.20551        -2.10714
   H       -4.27752       -15.59864         0.26415
   H       -3.15393       -16.93393        -1.31419
   H       -2.79363       -18.04840        -3.52457
   H       -3.88604       -18.32802        -5.83669
   H       -5.31242       -18.18249        -7.78319
   H       -7.18425       -17.61853        -9.46795
   H       -9.29232       -16.14965        -9.69848
   H       -9.88554       -14.56906        -7.12669
   H      -14.82472       -12.72127        -7.44267
   H      -15.99272       -13.53293       -12.81045
   H      -18.82655       -12.05597        -9.98328
   H      -17.12098       -12.17452        -8.18316
   H      -13.71099       -14.05914       -12.11456
*
