# ORCA input file
# SCF done       -166.449870299829          0.000916119291
! CAM-B3LYP def2-SVP def2/J RIJCOSX Grid4 TightSCF
%maxcore 5000
%tddft
    Mode sTDDFT
    Ethresh 5.0
    maxcore 5000
end

%pal
  nprocs 6
  end
* xyz 0 1
   C       -1.57635        -0.49550         3.47440
   C       -1.05559         0.62514         4.06631
   C       -1.05657         1.86978         3.42308
   C       -1.57772         2.05969         2.15431
   C       -2.12508         0.91298         1.51574
   C       -2.11880        -0.36121         2.18726
   N       -2.67156        -1.32040         1.44118
   S       -3.14644        -0.68556         0.04788
   N       -2.68184         0.83059         0.30868
   C       -1.57141         3.34127         1.50755
   C       -2.04752         3.65563         0.25051
   C       -1.87641         5.00621        -0.05490
   C       -1.26247         5.72997         0.98385
   S       -0.89880         4.74557         2.32831
   C       -1.13027         7.08243         0.58796
   C       -1.66424         7.21343        -0.71125
   C       -2.14928         5.91524        -1.15513
   C       -2.73498         5.61709        -2.35047
   C       -2.94746         6.59186        -3.34845
   N       -3.12753         7.37410        -4.16769
   C       -3.16821         4.31425        -2.67627
   N       -3.52867         3.26170        -2.95427
   C       -1.58284         8.51066        -1.19682
   C       -0.99245         9.37538        -0.28187
   S       -0.53257         8.55956         1.20423
   C       -0.75511        10.76422        -0.45344
   C       -0.15040        11.54403         0.55622
   C        0.09566        12.94917         0.40345
   N        0.67588        13.62850         1.41193
   C        1.00292        13.00946         2.50046
   C        0.76006        11.62120         2.65130
   N        0.20460        10.93543         1.70458
   F        1.09541        10.98233         3.76942
   F        1.57376        13.71687         3.47235
   C       -0.24702        13.65769        -0.76863
   C       -0.85276        12.88271        -1.78784
   C       -1.10198        11.46691        -1.63336
   N       -1.67960        10.95299        -2.71967
   S       -1.88942        12.10598        -3.81307
   N       -1.26281        13.32210        -2.97806
   C        0.00221        15.04891        -0.89918
   C       -0.28552        15.84839        -1.99985
   C        0.08274        17.17039        -1.79507
   C        0.65802        17.38626        -0.52514
   S        0.74428        15.95777         0.40807
   C        0.98830        18.75847        -0.41902
   C        0.62650        19.41062        -1.61217
   C        0.04695        18.43306        -2.51759
   C       -0.43009        18.65079        -3.77687
   C       -0.41293        19.92538        -4.38211
   N       -0.40797        20.95501        -4.88688
   C       -0.97346        17.61454        -4.56565
   N       -1.41980        16.78245        -5.21655
   C        0.91117        20.77635        -1.59341
   C        1.48437        21.17284        -0.40181
   S        1.67716        19.82785         0.71708
   C        1.90056        22.49365        -0.02366
   C        2.46927        22.76446         1.20950
   C        2.87546        24.04899         1.59397
   C        2.73409        25.13083         0.76510
   C        2.16388        24.91434        -0.49863
   C        1.74290        23.59829        -0.90528
   N        1.22894        23.60354        -2.13392
   S        1.27138        25.10176        -2.71370
   N        1.93916        25.82507        -1.44852
   H       -1.58094        -1.45734         3.95969
   H       -0.62990         0.55854         5.05610
   H       -0.63147         2.71815         3.94022
   H       -2.49288         2.91741        -0.39089
   H       -1.92352         8.84733        -2.15838
   H       -0.74192        15.45042        -2.88717
   H        0.71989        21.46960        -2.39187
   H        2.60554        21.94997         1.90660
   H        3.31035        24.17881         2.57344
   H        3.04195        26.12294         1.05074
*
