# ORCA input file
# SCF done       -188.099984070829          0.000825041461
! CAM-B3LYP def2-SVP def2/J RIJCOSX Grid4 TightSCF
%maxcore 5000
%tddft
    Mode sTDDFT
    Ethresh 5.0
    maxcore 5000
end

%pal
  nprocs 6
  end
* xyz 0 1
   C      -15.64232        -6.92135         8.63808
   C      -15.97433        -5.85063         9.41971
   F      -17.17100        -5.79966        10.01925
   C      -15.06640        -4.78859         9.60517
   F      -15.41905        -3.75114        10.37637
   C      -13.83842        -4.81216         9.00578
   C      -13.46714        -5.90121         8.19351
   C      -14.38365        -6.97649         8.00606
   C      -14.03205        -8.08157         7.19749
   C      -12.80334        -8.10680         6.59196
   C      -11.90012        -7.02465         6.77520
   C      -12.20766        -5.94800         7.55606
   C      -10.66463        -7.27195         6.00512
   O       -9.68013        -6.56357         6.00945
   C      -10.91094        -8.52517         5.25131
   C      -12.16532        -9.09114         5.72431
   C      -12.63296       -10.35598         5.48553
   C      -11.94012       -11.36429         4.77981
   N      -11.42426       -12.24782         4.25915
   C      -13.85887       -10.84495         5.98505
   N      -14.84900       -11.28930         6.35894
   C      -10.22690        -9.02004         4.17324
   C       -9.02326        -8.60537         3.56912
   C       -8.02593        -7.72589         3.97330
   C       -6.98355        -7.59823         3.06742
   C       -5.80530        -6.71318         3.27415
   C       -7.17302        -8.39445         1.92802
   S       -8.64090        -9.31356         2.01492
   C       -6.37204        -8.50840         0.77977
   C       -6.69171        -9.29968        -0.33401
   C       -5.71403        -9.22461        -1.37555
   N       -5.86807        -9.88127        -2.52323
   C       -6.95833       -10.60399        -2.65875
   C       -7.13335       -11.32544        -3.94414
   O       -6.29470       -11.30568        -4.82250
   C       -8.39313       -12.07320        -4.06942
   C       -9.31257       -12.14196        -3.10078
   C       -9.18106       -11.47454        -1.79261
   O      -10.03179       -11.55431        -0.93414
   C       -7.93574       -10.68331        -1.61525
   N       -7.79186       -10.03716        -0.47781
   C       -4.64718        -8.36710        -1.08001
   S       -4.86594        -7.67940         0.49536
   C       -3.63944        -8.05133        -2.00668
   C       -2.68407        -7.04654        -1.99746
   C       -1.96961        -6.94670        -3.18884
   C       -0.94140        -5.90530        -3.46252
   C       -2.39003        -7.88415        -4.13442
   S       -3.62595        -8.93179        -3.49938
   C       -1.92008        -8.05512        -5.45797
   C       -2.57169        -8.68312        -6.47500
   C       -1.80909        -9.21846        -7.63645
   O       -0.68179        -8.92635        -7.96141
   C       -2.70226       -10.22859        -8.24341
   C       -2.44125       -11.12301        -9.24153
   C       -3.44673       -12.04200        -9.61884
   C       -4.70219       -12.02782        -8.94264
   C       -5.68987       -12.96232        -9.31337
   C       -5.44713       -13.86388       -10.31093
   C       -4.20779       -13.87427       -10.98161
   C       -3.22795       -12.98352       -10.64368
   F       -3.99647       -14.76998       -11.95630
   F       -6.38924       -14.75035       -10.66230
   C       -4.94941       -11.08471        -7.91975
   C       -3.96716       -10.19182        -7.58896
   C       -3.95352        -9.10635        -6.61733
   C       -5.06168        -8.44214        -6.16709
   C       -4.99506        -7.23420        -5.44149
   N       -4.97888        -6.22452        -4.89485
   C       -6.38727        -8.84541        -6.42298
   N       -7.49073        -9.11653        -6.58567
   H      -16.34843        -7.72656         8.50800
   H      -13.15492        -3.99137         9.15711
   H      -14.74902        -8.87650         7.07157
   H      -11.50084        -5.14193         7.68195
   H      -10.69753        -9.84464         3.64884
   H       -8.07131        -7.19137         4.90404
   H       -5.74297        -5.96435         2.48422
   H       -4.88014        -7.28958         3.25711
   H       -5.88774        -6.20621         4.23114
   H       -8.53575       -12.57748        -5.01538
   H      -10.22618       -12.70561        -3.23307
   H       -2.54503        -6.39237        -1.15454
   H       -0.64976        -5.40969        -2.54083
   H       -1.34319        -5.15795        -4.14609
   H       -0.05951        -6.34284        -3.92663
   H       -0.90894        -7.72522        -5.67420
   H       -1.48082       -11.13475        -9.73408
   H       -6.64450       -12.96377        -8.81138
   H       -2.28436       -13.00607       -11.16613
   H       -5.89100       -11.10274        -7.39510
*
