# ORCA input file
# SCF done       -246.241919610479          0.000686989693
! CAM-B3LYP def2-SVP def2/J RIJCOSX Grid4 TightSCF
%maxcore 5000
%tddft
    Mode sTDDFT
    Ethresh 5.0
    maxcore 5000
end

%pal
  nprocs 6
  end
* xyz 0 1
   C       -1.91195         0.67172         0.54726
   C       -3.01047         1.28274         1.09365
   C       -3.56534         0.92878         2.34203
   N       -4.06155         0.67830         3.34555
   C       -3.77555         2.26688         0.43915
   N       -4.44273         3.05444        -0.06416
   C       -1.25046        -0.50408         1.10324
   C       -0.51365        -1.14697         0.06535
   C        0.17806        -2.30318         0.28695
   C        0.16997        -2.87359         1.57966
   C       -0.54890        -2.22501         2.62572
   C       -1.25805        -1.02955         2.36719
   C       -0.54481        -2.80202         3.91181
   C        0.13206        -3.96628         4.15423
   C        0.83912        -4.60429         3.12403
   C        0.85815        -4.06948         1.86442
   C       -0.63359        -0.36223        -1.17329
   O       -0.19576        -0.61607        -2.27122
   C       -1.37358         0.87764        -0.78260
   C       -1.35011         1.93953        -1.63088
   C       -1.63520         3.29876        -1.35881
   C       -1.62862         3.95786        -0.13864
   C       -1.93487         5.30636        -0.27205
   C       -2.17380         5.68689        -1.60817
   S       -1.99704         4.38706        -2.69102
   C       -2.49806         7.06706        -1.63964
   C       -2.46135         7.55254        -0.31278
   C       -2.12729         6.45990         0.58768
   C       -2.05974         6.48742         1.94929
   C       -2.30161         7.66551         2.68712
   N       -2.50147         8.62642         3.27892
   C       -1.75592         5.32691         2.69218
   N       -1.50279         4.37441         3.27821
   C       -2.75651         8.90102        -0.24118
   C       -3.03326         9.45392        -1.49431
   S       -2.92186         8.25671        -2.78226
   C       -3.35675        10.81749        -1.67489
   C       -3.77244        11.55195        -2.78718
   C       -3.90856        10.99412        -4.11009
   O       -3.63373         9.83703        -4.40298
   C       -4.39759        11.94298        -5.12440
   C       -4.68659        13.29956        -4.82430
   C       -5.12250        13.98737        -5.93328
   S       -5.18704        13.00768        -7.34186
   C       -4.62427        11.65265        -6.44998
   C       -4.43610        10.34010        -7.14688
   F       -3.16724         9.92287        -7.12852
   F       -5.19297         9.36791        -6.63186
   F       -4.78086        10.44121        -8.44328
   C       -5.51965        15.42905        -6.02151
   F       -6.57210        15.72392        -5.25478
   F       -4.52664        16.25875        -5.68871
   F       -5.86906        15.74526        -7.28146
   C       -4.52922        13.86255        -3.47284
   O       -4.81239        15.02991        -3.23399
   C       -4.04122        12.92701        -2.48930
   C       -3.79083        13.26205        -1.15746
   S       -3.26291        11.85275        -0.27165
   C       -3.86566        14.48142        -0.44641
   C       -3.43434        14.61328         0.87617
   C       -3.60280        15.89684         1.36168
   C       -4.18844        16.75488         0.40444
   S       -4.49851        15.99388        -1.08886
   C       -4.33236        18.03331         0.99690
   C       -3.83135        17.98861         2.31739
   C       -3.36199        16.64063         2.59044
   C       -2.81658        16.16278         3.74424
   C       -2.65800        16.94859         4.90689
   N       -2.53542        17.55537         5.87125
   C       -2.37591        14.82585         3.85426
   N       -2.00914        13.74282         3.93448
   C       -3.91494        19.20929         2.97594
   C       -4.48412        20.19256         2.17746
   S       -4.92986        19.56834         0.58439
   C       -4.82062        21.54073         2.43100
   C       -4.43246        22.37286         3.44129
   C       -4.94813        23.72063         3.62670
   C       -6.09428        24.23642         3.07987
   C       -6.55966        25.54714         3.31768
   N       -6.98757        26.60215         3.46397
   C       -6.99162        23.53394         2.24784
   N       -7.77846        23.02148         1.58653
   C       -4.08464        24.40332         4.58036
   C       -3.11294        23.47614         5.05233
   C       -3.30974        22.17271         4.39755
   O       -2.64641        21.17403         4.57492
   C       -2.16653        23.82650         5.97194
   C       -2.14574        25.14926         6.46752
   C       -3.10886        26.08653         5.99303
   C       -4.07880        25.69286         5.04301
   C       -3.07402        27.40584         6.48862
   C       -2.13464        27.78297         7.40935
   C       -1.18782        26.85920         7.87675
   C       -1.19369        25.57024         7.41665
   H        0.72415        -2.77819        -0.51447
   H       -1.78162        -0.55103         3.17994
   H       -1.09290        -2.30849         4.70074
   H        0.12588        -4.40269         5.14170
   H        1.36870        -5.52159         3.33336
   H        1.40099        -4.55626         1.06745
   H       -1.00447         1.71365        -2.63538
   H       -1.37084         3.47654         0.78710
   H       -2.78337         9.47763         0.66697
   H       -3.01299        13.79429         1.43229
   H       -3.57975        19.39612         3.97954
   H       -5.47748        21.96473         1.67974
   H       -1.44359        23.10212         6.31652
   H       -4.79002        26.42698         4.69930
   H       -3.80628        28.11278         6.12707
   H       -2.11622        28.79577         7.78292
   H       -0.45357        27.17421         8.60299
   H       -0.46736        24.85462         7.77302
*
