# ORCA input file
# SCF done       -184.923751498942          0.001054064939
! CAM-B3LYP def2-SVP def2/J RIJCOSX Grid4 TightSCF
%maxcore 5000
%tddft
    Mode sTDDFT
    Ethresh 5.0
    maxcore 5000
end

%pal
  nprocs 6
  end
* xyz 0 1
   O        4.25027         0.50258        10.33847
   N        2.99369         0.90078        10.13753
   C        2.90110         1.35783         8.91154
   C        1.69740         1.86679         8.37355
   N        0.72644         2.28080         7.93598
   C        4.16630         1.26128         8.25272
   C        4.97598         0.70629         9.23084
   C        6.34318         0.37223         9.18453
   N        7.45527         0.10977         9.12325
   C        4.49476         1.67108         6.88075
   O        3.71572         2.14087         6.09933
   O        5.80592         1.43812         6.65231
   C        6.41211         1.75408         5.47410
   C        5.89811         2.14237         4.26751
   C        6.93456         2.37520         3.34768
   C        8.21132         2.15568         3.88577
   S        8.16038         1.65497         5.52067
   C        9.18654         2.45282         2.89769
   C        8.51363         2.86523         1.73009
   C        7.07680         2.81281         1.97117
   C        6.08616         3.10628         1.08191
   C        4.71543         3.00472         1.40475
   N        3.59861         2.91880         1.64661
   C        6.36872         3.52305        -0.23691
   N        6.59751         3.86255        -1.30790
   C        9.38186         3.22145         0.70635
   C       10.70895         3.08058         1.09392
   S       10.88626         2.48577         2.73838
   C       11.86761         3.38734         0.36045
   C       13.17648         3.22652         0.82685
   C       14.16657         3.67702        -0.10765
   N       15.46688         3.60818         0.17285
   C       15.79659         3.10432         1.34351
   C       17.24508         3.02307         1.65613
   O       18.10106         3.40214         0.88493
   C       17.56640         2.44428         2.97183
   C       16.64343         2.02442         3.84360
   C       15.19329         2.08886         3.59439
   O       14.37596         1.70782         4.40574
   C       14.80728         2.65452         2.27762
   N       13.51978         2.72260         2.01161
   C       13.61667         4.18450        -1.28989
   S       11.88159         4.07995        -1.23521
   C       14.35841         4.73863        -2.34664
   C       13.89174         5.27611        -3.54010
   C       14.93279         5.77111        -4.31497
   C       16.19357         5.60799        -3.70466
   S       16.10693         4.83691        -2.18496
   C       17.17855         6.16858        -4.55948
   C       16.54338         6.67942        -5.70335
   C       15.11405         6.44520        -5.59314
   C       14.14379         6.78780        -6.48751
   C       12.78084         6.50325        -6.25621
   N       11.67375         6.27230        -6.06904
   C       14.43356         7.44998        -7.69973
   N       14.65985         7.98955        -8.68538
   C       17.43730         7.27260        -6.60328
   C       18.71955         7.20093        -6.11948
   S       18.87138         6.41071        -4.56687
   O       19.79220         7.70553        -6.77761
   C       21.00714         7.62259        -6.21083
   O       21.21560         7.10775        -5.13914
   C       22.02588         8.23583        -7.06071
   C       23.42000         8.38546        -6.77810
   N       24.02113         8.98609        -7.77645
   O       23.10966         9.24651        -8.71373
   C       21.90687         8.81133        -8.31642
   C       20.76986         8.96612        -9.13218
   N       19.83344         9.08129        -9.77943
   C       24.09757         7.97295        -5.60852
   N       24.63705         7.63893        -4.65815
   H        4.84771         2.25835         4.07168
   H        9.09610         3.57319        -0.26876
   H       18.62259         2.37965         3.19604
   H       16.92353         1.60703         4.80140
   H       12.84830         5.29667        -3.79914
   H       17.18897         7.72946        -7.54313
*
