# ORCA input file
# SCF done       -162.280602289171          0.000368734897
! CAM-B3LYP def2-SVP def2/J RIJCOSX Grid4 TightSCF
%maxcore 5000
%tddft
    Mode sTDDFT
    Ethresh 5.0
    maxcore 5000
end

%pal
  nprocs 6
  end
* xyz 0 1
   C        5.84487        -1.15621        -9.99122
   C        4.48815        -1.30135        -9.86941
   C        3.52652        -1.07111       -10.85680
   N        2.74240        -0.87973       -11.67201
   S        4.02805        -1.83205        -8.27568
   C        5.68805        -1.85884        -7.76500
   C        6.53395        -1.47011        -8.80223
   C        7.93392        -1.39234        -8.70991
   N        9.07819        -1.31893        -8.67629
   C        6.01577        -2.24614        -6.43931
   C        5.11635        -2.64866        -5.46464
   C        5.75298        -2.96745        -4.26932
   C        7.15074        -2.80299        -4.33457
   S        7.67819        -2.26014        -5.86296
   C        7.71080        -3.15496        -3.08197
   C        6.66082        -3.54647        -2.22364
   C        5.39957        -3.43794        -2.94056
   C        4.15168        -3.71795        -2.46757
   C        2.99857        -3.56868        -3.26710
   N        2.06387        -3.44661        -3.91959
   C        3.93511        -4.17345        -1.14957
   N        3.76042        -4.54454        -0.07914
   C        7.10769        -3.92297        -0.96388
   C        8.48956        -3.81698        -0.86267
   S        9.24783        -3.24190        -2.34074
   C        9.30753        -4.11672         0.23973
   C       10.69880        -3.97622         0.26429
   C       11.28308        -4.37244         1.51206
   N       12.59733        -4.30167         1.71600
   C       13.33020        -3.85310         0.71833
   C       14.79395        -3.76306         0.94665
   O       15.30918        -4.06703         2.00174
   C       15.57437        -3.27326        -0.20253
   C       15.03107        -2.91486        -1.37064
   C       13.58599        -2.96691        -1.65073
   O       13.11623        -2.62924        -2.71653
   C       12.74718        -3.46405        -0.53112
   N       11.44937        -3.52889        -0.74186
   C       10.33943        -4.81984         2.44367
   S        8.74103        -4.73346         1.76489
   C       10.64492        -5.28724         3.73268
   C        9.77324        -5.73838         4.71657
   C       10.45756        -6.13735         5.85717
   C       11.85522        -5.99072         5.73343
   S       12.33222        -5.35417         4.22286
   C       12.45400        -6.43542         6.93921
   C       11.44313        -6.85553         7.82211
   C       10.15583        -6.69374         7.16887
   C        8.92741        -7.01802         7.66311
   C        7.74612        -6.80917         6.91950
   N        6.78888        -6.63860         6.31217
   C        8.75355        -7.60685         8.93447
   N        8.60409        -8.10681         9.95484
   C       11.94391        -7.29979         9.04700
   C       13.32228        -7.23645         9.09013
   S       14.01478        -6.61380         7.59938
   C       14.16815        -7.61564        10.18576
   C       15.48868        -8.02140        10.07362
   C       16.24225        -8.17779         8.90895
   N       16.88048        -8.33048         7.96678
   S       16.19950        -8.42040        11.61006
   C       14.74341        -8.03816        12.41014
   C       13.75286        -7.62876        11.55695
   C       12.49625        -7.20109        12.02845
   N       11.49346        -6.83289        12.44305
   H        6.33193        -0.83785       -10.89584
   H        4.05573        -2.70294        -5.63544
   H        6.48955        -4.25913        -0.15073
   H       16.64199        -3.21725        -0.03800
   H       15.64158        -2.55768        -2.18898
   H        8.70684        -5.76375         4.58061
   H       11.34068        -7.66588         9.85764
   H       14.67591        -8.12045        13.47771
*
