# ORCA input file
# SCF done       -202.388356004429          0.000502186941
! CAM-B3LYP def2-SVP def2/J RIJCOSX Grid4 TightSCF
%maxcore 5000
%tddft
    Mode sTDDFT
    Ethresh 5.0
    maxcore 5000
end

%pal
  nprocs 6
  end
* xyz 0 1
   C       -3.05446        -2.11701        -5.43040
   O       -3.40484        -3.28118        -5.49892
   C       -2.99496        -1.15426        -6.54577
   C       -2.52764         0.08346        -6.06833
   C       -2.39418         1.14646        -6.95056
   C       -2.72693         0.95532        -8.28314
   C       -3.18533        -0.27716        -8.73152
   C       -3.32780        -1.35626        -7.86909
  Br       -3.62831        -0.48865       -10.56526
   C       -2.26404        -0.03203        -4.63493
   C       -1.75027         0.96106        -3.84466
   C       -1.42055         2.25209        -4.31219
   N       -1.13389         3.31736        -4.62788
   C       -1.45795         0.85156        -2.46783
   N       -1.18666         0.84213        -1.35230
   C       -2.61786        -1.38441        -4.23718
   C       -2.59161        -1.88636        -2.96187
   C       -2.89924        -3.17032        -2.48373
   C       -2.83513        -3.47882        -1.11875
   C       -3.15407        -4.79755        -0.85968
   C       -3.45874        -5.51618        -2.04080
   S       -3.37207        -4.56812        -3.45038
   C       -3.75722        -6.85284        -1.67410
   C       -3.64594        -6.97828        -0.27706
   C       -3.26629        -5.69169         0.28270
   C       -3.06233        -5.39423         1.59740
   C       -3.20737        -6.36461         2.61175
   N       -3.32671        -7.15564         3.43305
   C       -2.69736        -4.10173         2.03169
   N       -2.40401        -3.05396         2.39192
   C       -3.91413        -8.26894         0.16996
   C       -4.22230        -9.12587        -0.87480
   S       -4.18614        -8.32033        -2.43442
   C       -4.52638       -10.50843        -0.73742
   C       -4.77890       -11.45810        -1.71934
   C       -4.81257       -11.13803        -3.08564
   N       -4.84845       -10.84278        -4.19321
   C       -5.01859       -12.75199        -1.17716
   C       -4.95718       -12.73287         0.21202
   S       -4.59635       -11.18917         0.87600
   S       -5.25054       -14.25252         0.99076
   C       -5.45245       -14.94860        -0.58235
   C       -5.30332       -14.06863        -1.64966
   C       -5.45609       -14.73844        -2.89605
   C       -5.27547       -14.13353        -4.15073
   N       -5.10064       -13.65996        -5.17994
   C       -5.72573       -16.09239        -2.73980
   S       -5.78870       -16.56556        -1.05560
   C       -5.93226       -17.08173        -3.74248
   C       -6.15484       -16.91412        -5.09832
   C       -6.30635       -18.13693        -5.75246
   C       -6.19330       -19.24090        -4.88939
   S       -5.91380       -18.77594        -3.27330
   C       -6.33227       -20.42765        -5.64806
   C       -6.54340       -20.07675        -6.99588
   C       -6.54503       -18.62531        -7.10341
   C       -6.75110       -17.88589        -8.22855
   C       -6.98347       -18.48836        -9.48470
   N       -7.17827       -18.97387       -10.50439
   C       -6.78212       -16.47337        -8.22036
   N       -6.83551       -15.32903        -8.22888
   C       -6.70064       -21.18551        -7.81975
   C       -6.56926       -22.38056        -7.12713
   S       -6.30749       -22.11065        -5.40481
   C       -6.72210       -23.67107        -7.68403
   C       -6.34817       -24.88392        -7.19435
   C       -7.01669       -26.11286        -7.70695
   O       -7.71121       -26.20609        -8.68944
   C       -6.69262       -27.16268        -6.71458
   C       -5.79040       -26.65055        -5.76319
   C       -5.44178       -25.28239        -6.13711
   C       -4.29590       -24.63026        -5.76582
   C       -3.39557       -25.11551        -4.79536
   N       -2.64718       -25.45876        -3.99623
   C       -3.84559       -23.44610        -6.38603
   N       -3.43215       -22.50762        -6.90143
   C       -5.36340       -27.45288        -4.71564
   C       -5.83698       -28.75347        -4.63799
   C       -6.71635       -29.24537        -5.59511
   C       -7.16178       -28.45844        -6.64945
  Br       -7.32637       -31.03759        -5.45309
   H       -2.04248         2.11222        -6.62773
   H       -2.62947         1.77265        -8.98101
   H       -3.68334        -2.31636        -8.20956
   H       -2.29417        -1.20530        -2.17352
   H       -2.56181        -2.74791        -0.37816
   H       -3.88533        -8.58652         1.19717
   H       -6.20599       -15.95231        -5.57400
   H       -6.87077       -21.15085        -8.88068
   H       -7.29254       -23.70700        -8.60815
   H       -4.68597       -27.08475        -3.96217
   H       -5.51986       -29.39262        -3.82837
   H       -7.84509       -28.83710        -7.39363
*
