# ORCA input file
# SCF done       -193.883204904355          0.000333238581
! CAM-B3LYP def2-SVP def2/J RIJCOSX Grid4 TightSCF
%maxcore 5000
%tddft
    Mode sTDDFT
    Ethresh 5.0
    maxcore 5000
end

%pal
  nprocs 6
  end
* xyz 0 1
   C        2.11752         2.11366         4.17055
   C        2.32786         3.13230         5.29493
   C        3.35740         1.23950         3.96373
   C        1.62742         2.74120         2.87971
   C        0.36463         2.24950         2.63438
   C        0.03066         1.33330         3.69879
   C       -1.11965         0.61160         3.87198
   C       -2.20928         0.65925         2.98288
   N       -3.12764         0.65541         2.29612
   C       -1.26584        -0.23981         4.98710
   N       -1.38644        -0.93100         5.89373
   O        1.04264         1.25390         4.57178
   C       -0.49889         2.57475         1.57751
   N       -1.19045         2.87094         0.71194
   C        2.36719         3.65140         2.09435
   C        2.02898         4.15487         0.84122
   C        2.98626         5.03114         0.34923
   C        4.07216         5.21750         1.23303
   S        3.91327         4.29616         2.65333
   C        4.98145         6.13495         0.66437
   C        4.47462         6.53078        -0.59259
   C        3.21336         5.84736        -0.83464
   C        2.42701         5.94787        -1.94262
   C        2.77009         6.78767        -3.02516
   N        3.04419         7.46940        -3.90497
   C        1.22840         5.21673        -2.09997
   N        0.26121         4.62142        -2.25012
   C        5.29767         7.44120        -1.23807
   C        6.42549         7.75091        -0.48465
   S        6.46557         6.89570         1.04570
   C        7.46123         8.65341        -0.84409
   C        8.54187         8.92435         0.02393
   C        9.58354         9.84977        -0.30794
   N       10.57972        10.06483         0.57429
   C       10.58529         9.43495         1.70440
   C        9.55265         8.51594         2.03261
   N        8.58041         8.28629         1.21054
   F        9.55493         7.86672         3.19028
   F       11.58250         9.67191         2.54588
   C        9.61220        10.55400        -1.53166
   C        8.54166        10.27658        -2.41529
   C        7.48657         9.34783        -2.07725
   N        6.58933         9.25327        -3.06003
   S        7.01191        10.21302        -4.26912
   N        8.35225        10.80654        -3.62516
   C       10.64687        11.47917        -1.83460
   C       10.78510        12.20964        -3.01044
   C       11.89798        13.03648        -2.97888
   C       12.61720        12.94050        -1.76693
   S       11.92057        11.82214        -0.67820
   C       13.71751        13.82689        -1.83333
   C       13.69672        14.48036        -3.08555
   C       12.55346        14.00134        -3.84505
   C       12.18162        14.38165        -5.10137
   C       12.92389        15.33755        -5.82599
   N       13.54401        16.11724        -6.39407
   C       11.04547        13.84878        -5.74673
   N       10.12367        13.41944        -6.27575
   C       14.73904        15.38112        -3.24268
   C       15.56512        15.43521        -2.12455
   S       15.01923        14.32800        -0.85822
   C       16.70798        16.23990        -1.93080
   C       17.51491        16.30688        -0.81724
   C       18.55785        17.26935        -1.07756
   C       19.57865        17.65941        -0.25297
   C       19.76288        17.14360         1.04300
   N       19.95928        16.75737         2.10487
   C       20.51548        18.62399        -0.67863
   N       21.27842        19.40774        -1.02230
   O       18.41111        17.78212        -2.30459
   C       17.26656        17.21102        -2.95674
   C       16.31264        18.36545        -3.27670
   C       17.77173        16.51685        -4.22457
   C       17.37631        15.58532         0.37714
   N       17.22995        14.97759         1.33921
   H        3.22056         3.72476         5.12280
   H        2.43539         2.59234         6.23209
   H        1.46660         3.79292         5.37215
   H        4.22393         1.84920         3.72755
   H        3.18653         0.53029         3.15619
   H        3.54994         0.68440         4.87780
   H        1.12705         3.87962         0.32577
   H        5.12076         7.88040        -2.20229
   H       10.08899        12.11748        -3.82357
   H       14.89070        15.97228        -4.12505
   H       15.92972        18.80269        -2.35678
   H       15.47873        18.03519        -3.88597
   H       16.86590        19.12833        -3.81831
   H       18.42971        15.69070        -3.96257
   H       18.33664        17.23661        -4.81110
   H       16.95037        16.13878        -4.82319
*
