# ORCA input file
# SCF done       -156.299047028060          0.001284020773
! CAM-B3LYP def2-SVP def2/J RIJCOSX Grid4 TightSCF
%maxcore 5000
%tddft
    Mode sTDDFT
    Ethresh 5.0
    maxcore 5000
end

%pal
  nprocs 6
  end
* xyz 0 1
   C       10.02453         1.93130        -5.24206
   N        9.51799         1.27654        -6.24568
   C        9.28391         2.05764        -7.29946
   C        9.61229         3.38712        -7.13617
   S       10.26567         3.64937        -5.54919
   C        9.45016         4.42046        -8.05970
   N        9.30596         5.26252        -8.82547
   C       10.29719         1.35523        -3.97704
   C       10.75519         1.98165        -2.83244
   C       10.76862         1.11312        -1.74321
   C       10.32321        -0.18423        -2.07527
   S        9.91167        -0.33616        -3.72523
   C       10.21743        -0.94459        -0.88780
   C       10.58912        -0.12572         0.20069
   C       10.97932         1.18218        -0.30739
   C       11.38272         2.26096         0.42224
   C       11.70809         3.49359        -0.18311
   N       11.96729         4.49424        -0.67884
   C       11.47018         2.22041         1.83099
   N       11.51611         2.19491         2.97600
   C       10.33631        -0.71387         1.43064
   C        9.74667        -1.96802         1.29630
   S        9.60098        -2.45728        -0.38910
   C        9.03362        -2.69121         2.28271
   C        8.81566        -2.20541         3.60047
   C        7.61515        -2.56635         4.31260
   N        7.31467        -1.95155         5.46065
   C        8.15994        -1.09552         5.98382
   C        9.41027        -0.83400         5.33685
   N        9.68227        -1.35964         4.16566
   C       10.37846        -0.01763         5.97566
   N       11.13537         0.63365         6.53527
   C        7.82762        -0.45445         7.20285
   N        7.58181         0.07497         8.18783
   C        6.66224        -3.47647         3.79344
   C        7.09352        -4.22799         2.67491
   C        8.25442        -3.81567         1.92491
   N        8.41986        -4.55183         0.82861
   S        7.26989        -5.67433         0.76410
   N        6.47821        -5.25533         2.09528
   C        5.30620        -3.40945         4.19210
   C        4.24597        -4.11189         3.62684
   C        3.02286        -3.54193         3.94631
   C        3.14573        -2.40845         4.77946
   S        4.76668        -2.09012         5.22225
   C        1.88149        -1.77972         4.86405
   C        0.95750        -2.51599         4.09132
   C        1.63560        -3.66890         3.52421
   C        1.10430        -4.63138         2.71754
   C        1.88457        -5.67688         2.17866
   N        2.51330        -6.52053         1.72297
   C       -0.25901        -4.63298         2.35252
   N       -1.36538        -4.63150         2.05227
   C       -0.27544        -1.87877         3.97520
   C       -0.28643        -0.66755         4.64321
   S        1.22424        -0.32236         5.46246
   C       -1.30073         0.32129         4.64110
   N       -1.19496         1.47580         5.23064
   C       -2.24870         2.26094         5.01095
   C       -3.23600         1.71858         4.21507
   S       -2.79435         0.11148         3.72929
   C       -4.42359         2.32420         3.80303
   N       -5.39353         2.83481         3.46391
   H        8.85949         1.63627        -8.19271
   H       11.03337         3.02018        -2.80362
   H       10.51556        -0.26616         2.39093
   H        4.40327        -4.95427         2.97811
   H       -1.11641        -2.24744         3.41515
   H       -2.27902         3.24625         5.43964
*
