# ORCA input file
# SCF done       -204.956485735933          0.000602985949
! CAM-B3LYP def2-SVP def2/J RIJCOSX Grid4 TightSCF
%maxcore 5000
%tddft
    Mode sTDDFT
    Ethresh 5.0
    maxcore 5000
end

%pal
  nprocs 6
  end
* xyz 0 1
   C       -1.51297         2.06914        -3.01454
   C       -0.60724         1.44462        -2.19747
   C        0.55882         0.79697        -2.65893
   N        1.52228         0.25441        -2.96673
   C       -0.68693         1.35363        -0.79175
   N       -0.67453         1.23702         0.35068
   C       -1.40907         2.16804        -4.46649
   C       -2.51787         2.90591        -4.95424
   C       -2.70415         3.17488        -6.28901
   C       -1.75144         2.69090        -7.18995
   C       -0.64877         1.95215        -6.69653
   C       -0.46036         1.68179        -5.34580
   S        0.39875         1.45156        -7.98546
   C       -0.62499         2.21903        -9.14875
   C       -1.70400         2.82452        -8.60594
   C       -3.36987         3.29467        -3.82449
   O       -4.40399         3.94038        -3.88559
   C       -2.73293         2.75368        -2.61772
   C       -3.22204         2.86422        -1.34337
   C       -4.39274         3.48098        -0.86948
   C       -4.73894         3.45852         0.48643
   C       -5.93673         4.10199         0.73797
   C       -6.51405         4.63040        -0.43862
   S       -5.59298         4.33598        -1.83748
   C       -7.74188         5.25118        -0.08011
   C       -7.93468         5.11419         1.30042
   C       -6.80877         4.39461         1.86704
   C       -6.62773         4.06850         3.17916
   C       -5.49736         3.35916         3.63665
   N       -4.58194         2.78279         4.01532
   C       -7.57725         4.43075         4.15786
   N       -8.36203         4.73765         4.93593
   C       -9.14125         5.67965         1.73398
   C       -9.84404         6.23047         0.69462
   S       -9.03011         6.07732        -0.83626
   C      -11.19214         6.87461         0.81950
   C      -11.71173         7.42300        -0.50942
   N      -10.99008         8.03475         1.71199
   N      -11.49083         8.21064         2.78997
   C      -12.46547         7.33446         3.47282
   C      -12.69762         6.08374         2.70572
   C      -12.12185         5.88316         1.41961
   N      -12.52060         4.72353         0.98109
   O      -13.31396         4.21633         1.93368
   N      -13.42473         5.03975         2.98262
   C      -11.91244         7.05988         4.87275
   C      -13.74343         8.12170         3.50396
   C      -14.42690         8.62663         4.57364
   C      -15.59879         9.29066         4.17333
   C      -15.78123         9.28680         2.78591
   S      -14.52672         8.46862         1.97385
   C      -16.99066         9.96709         2.47612
   C      -17.57073        10.39639         3.68251
   C      -16.72135         9.97862         4.78803
   C      -16.96183        10.16705         6.11689
   C      -16.07228         9.71247         7.11319
   N      -15.34164         9.34984         7.91847
   C      -18.12225        10.83259         6.56628
   N      -19.06821        11.37860         6.91515
   C      -18.78511        11.04680         3.49603
   C      -19.14084        11.11760         2.15814
   S      -17.92340        10.38933         1.11948
   C      -20.28252        11.71268         1.57165
   C      -21.47487        12.01576         2.14936
   C      -22.09933        11.64331         3.40350
   C      -21.93017        10.46749         4.08733
   C      -22.68029        10.10589         5.22654
   N      -23.26604         9.75960         6.15023
   C      -21.06317         9.43571         3.67941
   N      -20.39194         8.55681         3.37049
   C      -23.15458        12.61536         3.66322
   C      -23.34551        13.40528         2.49922
   C      -22.36662        13.00623         1.47501
   O      -22.25654        13.41392         0.34175
   C      -24.30778        14.38396         2.42511
   C      -25.10694        14.60091         3.55162
   C      -24.89396        13.82004         4.71432
   C      -23.92728        12.82401         4.78857
   S      -25.98508        14.27244         5.98403
   C      -26.70707        15.47239         4.96943
   C      -26.16025        15.54022         3.73586
   H       -3.55925         3.74043        -6.62539
   H        0.39644         1.11433        -5.02370
   H       -0.35104         2.16872       -10.18465
   H       -2.44886         3.35124        -9.17451
   H       -2.64248         2.40355        -0.55250
   H       -4.12307         2.98003         1.22758
   H       -9.48310         5.68403         2.75337
   H      -11.02273         8.17545        -0.88404
   H      -12.68886         7.88037        -0.36708
   H      -11.80171         6.61123        -1.22705
   H      -10.99270         6.48254         4.80339
   H      -12.63838         6.49115         5.44684
   H      -11.69343         8.00095         5.36843
   H      -14.11011         8.51761         5.59356
   H      -19.37138        11.48717         4.28182
   H      -20.18212        12.02857         0.53749
   H      -24.43921        14.96410         1.52498
   H      -23.79236        12.26010         5.69681
   H      -27.50956        16.06340         5.36618
   H      -26.47991        16.22566         2.97202
*
