# ORCA input file
# SCF done       -181.615127893236          0.000776525121
! CAM-B3LYP def2-SVP def2/J RIJCOSX Grid4 TightSCF
%maxcore 5000
%tddft
    Mode sTDDFT
    Ethresh 5.0
    maxcore 5000
end

%pal
  nprocs 6
  end
* xyz 0 1
   C       -1.23838       -10.97686       -11.97659
   C       -0.44135       -12.07928       -12.11198
   F        0.00174       -12.44493       -13.32186
   C       -0.07494       -12.84227       -10.98542
   F        0.70840       -13.91713       -11.14737
   C       -0.51023       -12.49148        -9.73803
   C       -1.32922       -11.35898        -9.56581
   C       -1.70206       -10.58726       -10.70434
   C       -2.51948        -9.44193       -10.55585
   C       -2.94123        -9.07448        -9.30596
   C       -2.55549        -9.84806        -8.17436
   C       -1.77895       -10.96466        -8.28580
   C       -3.10228        -9.22064        -6.96138
   O       -2.99249        -9.63353        -5.81659
   C       -3.78016        -8.00151        -7.39480
   C       -3.75078        -7.94710        -8.84330
   C       -4.37292        -7.03349        -9.65371
   C       -5.17988        -5.96450        -9.21035
   N       -5.85022        -5.07513        -8.92936
   C       -4.30287        -7.05327       -11.06281
   N       -4.28220        -7.01437       -12.20993
   C       -4.23774        -7.02041        -6.54742
   C       -4.18453        -6.94304        -5.14754
   C       -4.52289        -5.73698        -4.51057
   C       -4.33190        -5.69108        -3.14883
   C       -3.88503        -6.88961        -2.59400
  Se       -3.64653        -8.24446        -3.87802
   C       -3.49847        -7.12723        -1.27017
   C       -3.15679        -8.40111        -0.80337
   C       -2.66049        -8.39023         0.53396
   N       -2.24281        -9.49700         1.13182
   C       -2.31513       -10.61189         0.43617
   C       -1.81852       -11.83539         1.10991
   O       -1.36005       -11.80249         2.23289
   C       -1.92304       -13.06418         0.30892
   C       -2.41807       -13.09073        -0.93420
   C       -2.92215       -11.90525        -1.65460
   O       -3.38977       -11.97226        -2.76958
   C       -2.82801       -10.62854        -0.90069
   N       -3.23442        -9.52940        -1.50434
   C       -2.58874        -7.11612         1.10696
   S       -3.20885        -5.94290        -0.01665
   C       -1.93678        -6.91323         2.33111
   C       -1.65731        -5.71837         2.98161
   C       -0.78444        -5.83322         4.05323
   C       -0.37503        -7.12552         4.34706
  Se       -1.13107        -8.38989         3.17381
   C        0.60513        -7.49783         5.30178
   C        1.75003        -6.81261         5.57697
   C        2.50842        -7.06276         6.83178
   O        2.33955        -7.96800         7.61423
   C        3.46494        -5.93925         6.93482
   C        4.33988        -5.64713         7.94089
   C        5.16339        -4.50429         7.82601
   C        5.05442        -3.67608         6.67110
   C        5.87583        -2.53580         6.56409
   C        6.76864        -2.23525         7.55399
   C        6.87847        -3.05674         8.69420
   C        6.09283        -4.16710         8.82909
   F        7.76263        -2.73803         9.64841
   F        7.55098        -1.15355         7.44917
   C        4.14211        -4.00521         5.64321
   C        3.36592        -5.12634         5.76904
   C        2.40568        -5.74060         4.85750
   C        2.34382        -5.51195         3.50556
   C        1.65372        -6.35710         2.61630
   N        1.16739        -7.07000         1.85654
   C        3.03635        -4.47571         2.84855
   N        3.55653        -3.63039         2.27186
   H       -1.50935       -10.40452       -12.85002
   H       -0.22065       -13.08472        -8.88487
   H       -2.78034        -8.87943       -11.43761
   H       -1.50649       -11.53207        -7.40916
   H       -4.63826        -6.12684        -7.01443
   H       -4.87536        -4.89022        -5.07727
   H       -4.51397        -4.81492        -2.54769
   H       -1.56775       -13.96425         0.79208
   H       -2.47908       -14.01639        -1.49073
   H       -2.06190        -4.77881         2.64237
   H       -0.47075        -4.98666         4.64315
   H        0.43080        -8.39688         5.88678
   H        4.40808        -6.28285         8.81045
   H        5.80744        -1.89959         5.69549
   H        6.18966        -4.78533         9.70776
   H        4.07578        -3.35967         4.78188
*
