# ORCA input file
# SCF done       -210.674232527012          0.000472776200
! CAM-B3LYP def2-SVP def2/J RIJCOSX Grid4 TightSCF
%maxcore 5000
%tddft
    Mode sTDDFT
    Ethresh 5.0
    maxcore 5000
end

%pal
  nprocs 6
  end
* xyz 0 1
   C        4.76225        -9.74057       -11.76222
   C        5.61076        -8.67791       -11.90046
   F        6.62248        -8.73356       -12.77673
   C        5.43312        -7.51342       -11.12746
   F        6.27884        -6.48560       -11.28401
   C        4.40935        -7.42785       -10.22579
   C        3.51872        -8.50583       -10.06016
   C        3.69567        -9.68312       -10.84316
   C        2.80814       -10.77468       -10.69947
   C        1.77687       -10.68743        -9.80317
   C        1.61247        -9.51179        -9.01769
   C        2.45379        -8.44384        -9.13304
   C        0.44286        -9.67107        -8.12755
   O        0.04183        -8.86882        -7.30800
   C       -0.06246       -11.03692        -8.39014
   C        0.71067       -11.62226        -9.45985
   C        0.41194       -12.78967       -10.11462
   C       -0.74082       -13.55714        -9.84723
   N       -1.69149       -14.18472        -9.70392
   C        1.17724       -13.31571       -11.17403
   N        1.77298       -13.78399       -12.03639
   C       -0.93555       -11.69869        -7.56056
   C       -1.74675       -11.08702        -6.58859
   C       -2.35268        -9.82250        -6.57083
   O       -2.65006        -9.02848        -7.61751
   C       -2.64101        -9.54341        -8.92600
   C       -2.84397        -9.49257        -5.28616
   O       -3.40378        -8.34570        -4.85222
   C       -3.22831        -7.17128        -5.62489
   C       -2.71005       -10.53755        -4.37171
   S       -1.98196       -11.94004        -5.06911
   C       -3.14946       -10.50276        -3.04083
   C       -3.06663       -11.55363        -2.11894
   C       -3.63786       -11.20695        -0.85254
   N       -3.64053       -12.05183         0.17271
   C       -3.08847       -13.23138        -0.02811
   C       -3.06384       -14.16500         1.12166
   O       -3.55826       -13.89242         2.19841
   C       -2.40203       -15.45239         0.86231
   C       -1.89160       -15.79449        -0.32533
   C       -1.92138       -14.92414        -1.51491
   O       -1.46665       -15.27411        -2.58262
   C       -2.53626       -13.58890        -1.30127
   N       -2.53093       -12.75755        -2.32317
   C       -4.13669        -9.89820        -0.81265
   S       -3.90152        -9.10246        -2.32910
   C       -4.67164        -9.34241         0.35630
   C       -4.97139        -8.00771         0.61514
   O       -4.84317        -7.14102        -0.40875
   C       -4.87700        -5.74834        -0.16378
   C       -5.37186        -7.79380         1.96093
   O       -5.61971        -6.53359         2.38327
   C       -5.65615        -6.23336         3.76347
   C       -5.38685        -8.97507         2.70376
   S       -4.89598       -10.35127         1.73705
   C       -5.79711        -9.23184         4.03864
   C       -5.43212       -10.30686         4.79205
   C       -6.29119       -10.74884         5.92272
   O       -7.16255       -10.10814         6.46554
   C       -5.89150       -12.14893         6.17764
   C       -6.46337       -13.07223         7.00517
   C       -5.93768       -14.38400         7.03616
   C       -4.83147       -14.71772         6.20053
   C       -4.32896       -16.03420         6.22387
   C       -4.89310       -16.97409         7.03945
   C       -5.98339       -16.64223         7.86798
   C       -6.49541       -15.37512         7.86753
   F       -6.51815       -17.58412         8.65879
   F       -4.41274       -18.22591         7.05889
   C       -4.24971       -13.73903         5.36353
   C       -4.76926       -12.47357         5.36175
   C       -4.36940       -11.28052         4.62878
   C       -3.12145       -11.03690         4.12154
   C       -2.73521        -9.75731         3.67383
   N       -2.40249        -8.70343         3.36068
   C       -2.09078       -11.99421         4.05232
   N       -1.21056       -12.72598         3.96804
   H        4.91140       -10.62407       -12.36306
   H        4.28775        -6.52958        -9.64092
   H        2.96924       -11.65598       -11.29935
   H        2.30830        -7.56181        -8.52800
   H       -0.91793       -12.78180        -7.54483
   H       -2.96030       -10.58887        -8.95077
   H       -1.65031        -9.46508        -9.38553
   H       -3.34176        -8.92635        -9.48903
   H       -3.47636        -6.34649        -4.95867
   H       -3.89848        -7.16475        -6.48659
   H       -2.19702        -7.07972        -5.96935
   H       -2.35621       -16.12528         1.70779
   H       -1.41887       -16.75554        -0.47714
   H       -5.84791        -5.43505         0.22361
   H       -4.69890        -5.28621        -1.13342
   H       -4.09379        -5.45083         0.53618
   H       -5.42240        -5.17096         3.83648
   H       -4.91279        -6.81222         4.31578
   H       -6.65108        -6.40572         4.18024
   H       -6.57228        -8.61167         4.47184
   H       -7.30943       -12.81058         7.62242
   H       -3.49285       -16.30133         5.59709
   H       -7.33165       -15.13858         8.50678
   H       -3.43373       -14.01082         4.71413
*
