# ORCA input file
# SCF done       -226.781337880434          0.000443826014
! CAM-B3LYP def2-SVP def2/J RIJCOSX Grid4 TightSCF
%maxcore 5000
%tddft
    Mode sTDDFT
    Ethresh 5.0
    maxcore 5000
end

%pal
  nprocs 6
  end
* xyz 0 1
   C        2.06502         2.45466         7.21589
   C        2.11570         3.08883         5.83428
   O        1.58751         4.09678         5.47626
   O        2.87336         2.32859         5.02026
   C        3.28906         1.13321         5.66808
   C        3.22556         1.46268         7.17159
   C        3.11379         0.25081         8.08664
   C        2.02056        -0.71191         7.64769
   C        2.17268        -1.16394         6.20138
   C        2.37475        -0.02211         5.19102
   O        2.98446        -0.64006         4.05832
   C        3.61821        -1.76437         4.40104
   O        4.26974        -2.42119         3.64143
   C        3.38789        -2.05015         5.88500
   C        3.25239        -3.50056         6.17343
   C        3.83244        -4.18705         7.22571
   N        4.58613        -3.67399         8.29393
   O        4.99134        -4.46177         9.12803
   O        4.81176        -2.47014         8.33272
   C        3.59802        -5.60603         7.06810
   C        2.97128        -5.79449         5.88883
   C        2.71151        -4.49803         5.27974
   C        2.06231        -4.34963         4.06094
   C        1.12420        -3.38953         3.60757
   C        0.52582        -3.85805         2.46632
   C        1.11790        -5.10268         2.10188
   N        0.81626        -5.79860         0.91901
   O        1.50284        -6.76311         0.62489
   O       -0.12204        -5.39353         0.25503
   C        2.10844        -5.41360         3.03132
   C        3.11457        -6.38611         2.97000
   C        4.37191        -6.15354         3.47720
   C        5.37036        -7.13783         3.53137
   N        6.69854        -6.89109         3.77368
   C        7.28958        -5.59971         4.03938
   C        7.09072        -5.18642         5.49536
   C        7.46455        -8.07186         3.79183
   O        8.66130        -8.10659         3.96228
   C        6.48842        -9.12334         3.55658
   C        5.22917        -8.52943         3.39737
   C        4.25578        -9.59215         3.25097
   O        3.05407        -9.57529         3.11127
   N        5.01559       -10.78514         3.33931
   C        4.35850       -12.05525         3.12814
   C        4.75162       -12.68722         1.79674
   C        6.34696       -10.51943         3.52526
   C        7.43770       -11.40144         3.71377
   C        7.40301       -12.73443         3.97020
   C        8.55080       -13.53026         4.19838
   S       10.17129       -12.92834         3.94772
   C        8.56960       -14.84773         4.64053
   C        7.36004       -15.62041         4.99031
   O        6.21989       -15.20907         4.84117
   C        7.67856       -16.92205         5.54605
   C        6.83188       -17.88546         6.05281
   N        7.57238       -18.94221         6.45884
   C        7.05330       -20.11336         7.12059
   C        6.98321       -19.90113         8.63141
   C        8.88268       -18.69157         6.23237
   C        9.00069       -17.44198         5.66229
   C       10.19146       -16.73716         5.22594
   O       11.31168       -17.21816         5.24067
   C        9.89137       -15.36553         4.75839
   C       10.85690       -14.44649         4.40478
   C       12.33000       -14.64573         4.42212
   C       13.01928       -13.36441         4.90876
   O       12.94849       -12.90229         6.00648
   O       13.71924       -12.81178         3.91608
   C       13.59112       -13.51574         2.68887
   C       13.00446       -14.89943         3.05814
   C       12.12142       -15.54633         1.98571
   C       12.31792       -14.88847         0.62538
   C       11.88445       -13.42814         0.71486
   C       12.79606       -12.65126         1.68851
   O       13.73789       -11.95530         0.88057
   C       13.39820       -11.94975        -0.41708
   O       14.06448       -11.43700        -1.26346
   C       12.07435       -12.67482        -0.59814
   H        1.09913         1.96074         7.33449
   H        2.15859         3.21292         7.98981
   H        4.30817         0.92180         5.33022
   H        4.14358         2.00398         7.42456
   H        2.90372         0.59490         9.10005
   H        4.06819        -0.27492         8.11907
   H        1.04033        -0.24295         7.75821
   H        2.03548        -1.59053         8.29349
   H        1.26599        -1.71582         5.93121
   H        1.43009         0.40998         4.84609
   H        4.26078        -1.67024         6.42860
   H        3.89550        -6.34000         7.79095
   H        2.60400        -6.72267         5.49746
   H        0.83634        -2.49434         4.12048
   H       -0.25748        -3.38348         1.90500
   H        2.90068        -7.30396         2.43442
   H        4.63129        -5.14632         3.77322
   H        6.85900        -4.85667         3.36396
   H        8.35728        -5.70018         3.82753
   H        6.03278        -5.15340         5.74594
   H        7.52044        -4.20252         5.65878
   H        7.58117        -5.89493         6.15828
   H        3.28788       -11.82913         3.12278
   H        4.56050       -12.73117         3.96220
   H        4.47666       -12.02949         0.97563
   H        4.22803       -13.63106         1.67717
   H        5.82145       -12.87567         1.74954
   H        8.39765       -10.89640         3.70514
   H        6.47375       -13.27532         4.06593
   H        5.76352       -17.86955         6.13905
   H        7.70589       -20.95928         6.89123
   H        6.05613       -20.32264         6.72533
   H        7.97271       -19.69507         9.03219
   H        6.59081       -20.79213         9.11269
   H        6.33312       -19.06212         8.86729
   H        9.65080       -19.39656         6.48124
   H       12.53483       -15.46929         5.11292
   H       14.60241       -13.61307         2.27955
   H       13.85846       -15.55554         3.24614
   H       11.06787       -15.45810         2.25842
   H       12.34958       -16.61014         1.92851
   H       11.70981       -15.40438        -0.11898
   H       13.36220       -14.95191         0.31487
   H       10.84796       -13.38725         1.05766
   H       12.22804       -11.90126         2.25472
   H       12.10983       -13.32121        -1.47283
   H       11.30013       -11.92298        -0.75984
*
