# ORCA input file
# SCF done       -232.100893109812          0.000904702457
! CAM-B3LYP def2-SVP def2/J RIJCOSX Grid4 TightSCF
%maxcore 5000
%tddft
    Mode sTDDFT
    Ethresh 5.0
    maxcore 5000
end

%pal
  nprocs 6
  end
* xyz 0 1
   C      -10.82337         1.51763        -3.76002
   C      -11.59949         1.41981        -4.88062
   F      -12.26050         2.49128        -5.33731
   C      -11.71520         0.19506        -5.56900
   F      -12.48377         0.12938        -6.66398
   C      -11.05309        -0.91576        -5.12635
   C      -10.24678        -0.84744        -3.97362
   C      -10.12706         0.39079        -3.27784
   C       -9.31995         0.48463        -2.12121
   C       -8.64951        -0.62494        -1.67613
   C       -8.78068        -1.85804        -2.37389
   C       -9.55665        -1.98119        -3.48994
   C       -7.98851        -2.89746        -1.69007
   O       -7.99130        -4.08416        -1.92552
   C       -7.31548        -2.20368        -0.55872
   C       -7.74917        -0.82067        -0.54333
   C       -7.34007         0.15492         0.32851
   C       -7.78066         1.49447         0.27981
   N       -8.10329         2.59588         0.29660
   C       -6.42196        -0.03458         1.38265
   N       -5.67387        -0.11618         2.25016
   C       -6.54852        -2.83432         0.37857
   C       -5.97446        -4.11411         0.22226
   S       -5.52841        -5.06917         1.62888
   C       -4.87829        -6.40165         0.69507
   C       -4.99369        -6.06586        -0.63955
   C       -5.58677        -4.82114        -0.89866
   O       -5.50536        -4.59049        -2.22754
   C       -4.89082        -5.68068        -2.78459
   O       -4.64810        -5.79652        -3.93498
   O       -4.56419        -6.57938        -1.81613
   C       -4.39428        -7.63421         1.20243
   N       -3.80570        -7.85789         2.42208
   C       -3.58491        -6.90481         3.48263
   C       -4.76123        -6.86337         4.45390
   C       -3.39259        -9.19914         2.55729
   O       -2.81862        -9.62283         3.54138
   C       -3.79779        -9.82765         1.32240
   C       -4.40636        -8.83985         0.51053
   C       -4.91743        -9.48546        -0.68537
   O       -5.57991        -9.07909        -1.61077
   N       -4.52305       -10.83116        -0.53475
   C       -4.77912       -11.80417        -1.57038
   C       -3.53168       -12.07173        -2.40816
   C       -3.87089       -11.05182         0.65021
   C       -3.42465       -12.33464         1.05323
   C       -2.76433       -12.53956         2.22073
   C       -2.26925       -13.77015         2.73266
   S       -1.27001       -13.56873         4.15107
   C       -2.36823       -15.11901         2.37786
   C       -3.15705       -15.71283         1.27504
   O       -3.86602       -15.08912         0.50124
   C       -3.03195       -17.15794         1.19258
   C       -3.61840       -18.01338         0.28318
   N       -3.23026       -19.27842         0.56534
   C       -3.57943       -20.44466        -0.20682
   C       -2.57625       -20.67328        -1.33544
   C       -2.39335       -19.26953         1.62899
   C       -2.24410       -17.96837         2.05773
   C       -1.45609       -17.41490         3.13775
   O       -0.72382       -18.05442         3.87197
   C       -1.62612       -15.95291         3.26033
   C       -0.97123       -15.26630         4.26778
   C       -0.19412       -15.83693         5.32167
   C        0.95936       -15.36454         5.84873
   C        1.42610       -15.85439         7.17999
   O        0.99705       -16.80001         7.79401
   C        2.46392       -14.89138         7.60025
   C        3.13882       -14.82635         8.78543
   C        4.08204       -13.79370         8.98335
   C        4.29856       -12.83687         7.94896
   C        5.23514       -11.80383         8.15618
   C        5.92751       -11.72767         9.33176
   C        5.71480       -12.67639        10.35281
   C        4.81145       -13.68786        10.18382
   F        6.40790       -12.57666        11.49443
   F        6.81863       -10.74750         9.52614
   C        3.58823       -12.93142         6.73102
   C        2.69098       -13.95151         6.55411
   C        1.86924       -14.32311         5.40609
   C        2.08731       -13.92567         4.11542
   C        1.46128       -14.49812         2.98786
   N        1.02386       -14.95707         2.03107
   C        3.04354       -12.95547         3.74586
   N        3.79590       -12.16277         3.39647
   H      -10.74473         2.46302        -3.24621
   H      -11.15133        -1.84574        -5.66407
   H       -9.25513         1.43419        -1.61515
   H       -9.63683        -2.92951        -3.99896
   H       -6.35705        -2.35412         1.32919
   H       -3.40345        -5.91807         3.05127
   H       -2.68832        -7.23754         4.01357
   H       -5.67762        -6.58324         3.93996
   H       -4.56451        -6.13634         5.23598
   H       -4.89651        -7.84080         4.90994
   H       -5.56226       -11.37363        -2.20053
   H       -5.14802       -12.73001        -1.12212
   H       -3.18271       -11.14864        -2.86494
   H       -3.76622       -12.78223        -3.19551
   H       -2.73344       -12.48282        -1.79444
   H       -3.63894       -13.16946         0.40556
   H       -2.54960       -11.68158         2.84892
   H       -4.28166       -17.78769        -0.52818
   H       -4.58120       -20.30077        -0.61947
   H       -3.59645       -21.31044         0.45988
   H       -2.55732       -19.81695        -2.00511
   H       -2.85333       -21.55574        -1.90481
   H       -1.57733       -20.81756        -0.93120
   H       -1.96278       -20.16775         2.02493
   H       -0.59679       -16.73305         5.78562
   H        2.95660       -15.55485         9.56072
   H        5.41280       -11.07208         7.38367
   H        4.66008       -14.40562        10.97476
   H        3.76520       -12.18941         5.96897
*
