# ORCA input file
# SCF done       -252.601472978856          0.000784013333
! CAM-B3LYP def2-SVP def2/J RIJCOSX Grid4 TightSCF
%maxcore 5000
%tddft
    Mode sTDDFT
    Ethresh 5.0
    maxcore 5000
end

%pal
  nprocs 6
  end
* xyz 0 1
   C       -2.73303         0.68258         0.83089
   C       -1.48511         0.62815         1.38429
   F       -0.82571         1.75817         1.67221
   C       -0.87526        -0.61311         1.65801
   F        0.35045        -0.63539         2.19883
   C       -1.52261        -1.78274         1.37458
   C       -2.80991        -1.76083         0.80284
   C       -3.42725        -0.50599         0.52495
   C       -4.71736        -0.45904        -0.04785
   C       -5.36958        -1.63105        -0.33167
   C       -4.74753        -2.88071        -0.04724
   C       -3.50022        -2.95565         0.50136
   C       -5.65569        -3.97683        -0.43280
   O       -5.39834        -5.15077        -0.55600
   C       -6.94849        -3.29953        -0.76738
   C       -6.68987        -1.87516        -0.89756
   C       -7.51826        -0.94921        -1.46853
   C       -8.74023        -1.28308        -2.08937
   N       -9.72368        -1.52809        -2.62863
   C       -7.22680         0.42841        -1.55702
   N       -7.03802         1.55559        -1.65894
   C       -8.13960        -3.93120        -0.77328
   C       -8.33333        -5.29458        -0.35763
   C       -7.87873        -5.88541         0.81508
   N       -7.15194        -5.31473         1.87027
   O       -6.96048        -6.00727         2.85441
   O       -6.75201        -4.15880         1.77632
   C       -8.38866        -7.23067         0.89880
   C       -9.08314        -7.49343        -0.23020
   C       -9.07507        -6.31867        -1.07498
   C       -9.64976        -6.22631        -2.33277
   C      -10.10322        -5.06261        -3.01410
   C      -10.97589        -5.43677        -3.99842
   C      -11.05984        -6.86019        -4.04402
   N      -11.82303        -7.53988        -4.98936
   O      -12.38597        -6.88002        -5.85101
   O      -11.91786        -8.76514        -4.92462
   C      -10.16644        -7.38908        -3.09703
   C       -9.71593        -8.71286        -3.07978
   C       -8.51404        -9.16193        -2.58381
   C       -8.11097       -10.51160        -2.58175
   C       -7.32546       -11.06062        -1.57448
   C       -7.41044       -12.46669        -1.62852
   O       -6.70607       -13.16892        -0.73619
   C       -6.77623       -14.57383        -0.64715
   C       -8.22177       -12.83916        -2.73083
   C       -8.63708       -11.62517        -3.37366
   C       -9.34492       -11.46848        -4.55800
   C       -9.23885       -10.39234        -5.45840
   C      -10.26309       -10.48490        -6.38152
   O      -10.46600        -9.60282        -7.32639
   C      -11.65287        -9.65048        -8.10345
   C      -11.04918       -11.69084        -6.06836
   C      -10.47327       -12.30502        -5.02392
   C       -8.42680       -14.17025        -3.22391
   C       -8.48916       -14.53473        -4.52169
   C       -8.67348       -15.90157        -4.96604
   C       -8.28395       -16.96574        -4.13498
   C       -8.39685       -18.25413        -4.59157
   C       -8.89826       -18.53148        -5.86941
   C       -8.88761       -20.00269        -6.05484
   O       -9.20749       -20.66097        -7.00915
   N       -8.38457       -20.51757        -4.86399
   C       -8.06366       -19.54317        -3.93596
   O       -7.60375       -19.74254        -2.83966
   C       -8.24569       -21.93675        -4.61334
   C       -9.52560       -22.51892        -4.02437
   C       -9.29871       -17.51622        -6.70153
   C       -9.18738       -16.18529        -6.26004
   C       -9.67634       -15.12047        -7.10061
   C       -9.81017       -15.18414        -8.44625
   C      -10.36692       -14.10813        -9.18074
   C      -10.70521       -14.06732       -10.49836
   C      -10.94488       -12.75103       -11.14472
   O      -11.12738       -11.69521       -10.57802
   C      -10.86277       -13.00240       -12.59310
   C      -10.89679       -12.10699       -13.62364
   C      -10.76817       -12.58029       -14.94811
   C      -10.59975       -13.97706       -15.17820
   C      -10.46415       -14.44205       -16.50161
   C      -10.49766       -13.56262       -17.54735
   C      -10.66614       -12.18148       -17.31868
   C      -10.79865       -11.69924       -16.04670
   F      -10.69407       -11.34364       -18.36207
   F      -10.36985       -14.00575       -18.80333
   C      -10.57541       -14.88110       -14.09154
   C      -10.71309       -14.40188       -12.81636
   C      -10.76845       -15.08727       -11.52642
   C      -11.05539       -16.41436       -11.35190
   C      -11.38742       -16.99605       -10.11040
   N      -11.70740       -17.50240        -9.13137
   C      -11.16430       -17.33653       -12.41522
   N      -11.24471       -18.12552       -13.24408
   H       -3.18539         1.64072         0.62778
   H       -1.04295        -2.72417         1.59201
   H       -5.16491         0.50342        -0.23900
   H       -3.05035        -3.91348         0.71297
   H       -9.03860        -3.38251        -1.01938
   H       -8.23119        -7.86940         1.74598
   H       -9.62298        -8.39308        -0.44993
   H       -9.88537        -4.04641        -2.75655
   H      -11.52941        -4.78541        -4.64863
   H      -10.36105        -9.42180        -3.57789
   H       -7.84537        -8.46909        -2.08999
   H       -6.81020       -10.51961        -0.80422
   H       -6.46685       -15.04891        -1.58223
   H       -7.77727       -14.90859        -0.36259
   H       -6.07556       -14.84677         0.14127
   H       -8.49590        -9.62112        -5.43015
   H      -11.71619        -8.68371        -8.59946
   H      -12.52620        -9.78608        -7.46372
   H      -11.59719       -10.44078        -8.85520
   H      -11.93469       -11.99606        -6.59328
   H      -10.82870       -13.17221        -4.50058
   H       -8.53645       -14.94009        -2.47458
   H       -8.35696       -13.78052        -5.28322
   H       -7.86551       -16.78789        -3.15717
   H       -7.41199       -22.06597        -3.91913
   H       -8.01463       -22.41601        -5.56764
   H       -9.75971       -22.03435        -3.07919
   H       -9.39833       -23.58328        -3.84955
   H      -10.35503       -22.37400        -4.71266
   H       -9.74615       -17.74437        -7.65602
   H       -9.99855       -14.21389        -6.60578
   H       -9.46269       -16.04950        -8.98921
   H      -10.48893       -13.17062        -8.64678
   H      -11.01966       -11.05210       -13.43091
   H      -10.33822       -15.49594       -16.69475
   H      -10.92664       -10.63986       -15.88848
   H      -10.43916       -15.93104       -14.29559
*
