# ORCA input file
# SCF done       -244.839956160132          0.000410933672
! CAM-B3LYP def2-SVP def2/J RIJCOSX Grid4 TightSCF
%maxcore 5000
%tddft
    Mode sTDDFT
    Ethresh 5.0
    maxcore 5000
end

%pal
  nprocs 6
  end
* xyz 0 1
   C       -2.83093        -2.81147         2.52557
   C       -1.70685        -3.58189         2.63060
   F       -0.54706        -3.03294         3.01029
   C       -1.75277        -4.96093         2.34066
   F       -0.63600        -5.69166         2.45051
   C       -2.92265        -5.55036         1.95110
   C       -4.09857        -4.78355         1.83476
   C       -4.05272        -3.38850         2.12460
   C       -5.21884        -2.59833         2.00876
   C       -6.39245        -3.18590         1.61614
   C       -6.43381        -4.58257         1.34068
   C       -5.32217        -5.36968         1.44230
   C       -7.80785        -4.97539         0.97904
   O       -8.20426        -6.09470         0.72937
   C       -8.61245        -3.73166         1.08260
   C       -7.72159        -2.63018         1.39508
   C       -8.05368        -1.30372         1.36577
   C       -7.15110        -0.25797         1.65185
   N       -6.45369         0.62417         1.87939
   C       -9.32340        -0.82697         0.97271
   N      -10.31956        -0.39137         0.60582
   C       -9.97154        -3.71777         1.09410
   C      -10.78397        -4.81267         0.67958
   C      -11.82361        -5.38825         1.39540
   N      -12.25270        -4.98304         2.67075
   O      -11.61230        -4.10721         3.23302
   O      -13.23708        -5.52603         3.13632
   C      -12.33729        -6.51738         0.67558
   C      -11.60432        -6.66474        -0.45890
   C      -10.62175        -5.61385        -0.52498
   C       -9.81980        -5.28107        -1.60549
   C       -9.45504        -3.96517        -1.99835
   C       -8.94029        -4.00823        -3.26457
   C       -8.88826        -5.36581        -3.70122
   N       -8.31462        -5.75171        -4.90546
   O       -8.20711        -6.95462        -5.15187
   O       -7.92783        -4.88183        -5.66971
   C       -9.37896        -6.19444        -2.67842
   C       -9.34910        -7.59301        -2.62455
   C       -9.36738        -8.30238        -1.44646
   C       -9.49772        -9.68996        -1.26248
   C       -9.96534       -10.18177        -0.03880
   C      -10.30151       -11.53899        -0.15203
   O      -10.77419       -12.17538         0.91393
   C      -11.25881       -13.50224         0.85677
   C       -9.96206       -11.97069        -1.46644
   C       -9.48311       -10.81239        -2.19277
   C       -9.13277       -10.84166        -3.53310
   C       -8.16478       -10.08983        -4.23635
   C       -8.14496       -10.53380        -5.54231
   O       -7.37312       -10.22405        -6.55671
   C       -6.40590        -9.20042        -6.38520
   C       -9.19727       -11.54758        -5.71173
   C       -9.76174       -11.75805        -4.51774
   C       -9.84409       -13.30911        -1.90710
   C       -8.89713       -13.75908        -2.78460
   C       -8.82798       -15.09226        -3.23365
   S       -7.50928       -15.57858        -4.28192
   C       -8.06684       -17.23743        -4.39846
   C       -9.22644       -17.36274        -3.65881
   C       -9.65363       -16.18996        -3.00839
   C      -10.86169       -16.53229        -2.26138
   O      -11.55802       -15.86782        -1.54448
   O      -11.12113       -17.86251        -2.50094
   C      -10.17353       -18.43139        -3.33351
   O      -10.20871       -19.57560        -3.66734
   C       -7.37817       -18.25824        -5.08814
   C       -6.17592       -18.08818        -5.69658
   C       -5.46341       -19.15816        -6.28512
   C       -4.15633       -19.17052        -6.66779
   C       -3.66419       -20.25060        -7.57095
   O       -4.24289       -21.27249        -7.85264
   C       -2.36215       -19.77147        -8.07400
   C       -1.54110       -20.34359        -9.00262
   C       -0.33449       -19.69417        -9.34607
   C       -0.00783       -18.45353        -8.72473
   C        1.19569       -17.80823        -9.07367
   C        2.03698       -18.37015        -9.99255
   C        1.71343       -19.59805       -10.60552
   C        0.55244       -20.24701       -10.29027
   F        2.55607       -20.12406       -11.50250
   F        3.18059       -17.75744       -10.32042
   C       -0.87706       -17.88605        -7.76531
   C       -2.03453       -18.54044        -7.43589
   C       -3.07597       -18.22980        -6.45795
   C       -2.93591       -17.35415        -5.41272
   C       -3.80820       -17.26191        -4.30731
   N       -4.44436       -17.16108        -3.35703
   C       -1.83120       -16.48916        -5.25850
   N       -0.97453       -15.74326        -5.09511
   H       -2.77830        -1.75749         2.74961
   H       -2.94082        -6.60702         1.73453
   H       -5.15732        -1.54714         2.24056
   H       -5.37598        -6.42624         1.22745
   H      -10.49469        -2.86298         1.50800
   H      -13.15987        -7.11697         1.01492
   H      -11.78041        -7.37467        -1.24356
   H       -9.67164        -3.07636        -1.43708
   H       -8.61781        -3.17761        -3.86428
   H       -9.27021        -8.10980        -3.56986
   H       -9.31074        -7.73712        -0.52445
   H      -10.11903        -9.59626         0.84763
   H      -11.69413       -13.68961         1.83759
   H      -10.44736       -14.21367         0.68430
   H      -12.02770       -13.62564         0.09196
   H       -7.49337        -9.38098        -3.79532
   H       -5.93930        -9.06004        -7.35750
   H       -5.65361        -9.50188        -5.65217
   H       -6.88846        -8.27680        -6.05888
   H       -9.43589       -11.99426        -6.65684
   H      -10.60914       -12.37663        -4.29678
   H      -10.51779       -14.04399        -1.49398
   H       -8.11534       -13.09901        -3.13164
   H       -7.83849       -19.23732        -5.04537
   H       -5.74148       -17.09753        -5.72151
   H       -6.01755       -20.06690        -6.49696
   H       -1.80751       -21.28113        -9.46627
   H        1.46076       -16.87011        -8.61156
   H        0.31947       -21.18578       -10.76783
   H       -0.60653       -16.94290        -7.31839
*
