# ORCA input file
# SCF done       -224.340140220112          0.000688392840
! CAM-B3LYP def2-SVP def2/J RIJCOSX Grid4 TightSCF
%maxcore 5000
%tddft
    Mode sTDDFT
    Ethresh 5.0
    maxcore 5000
end

%pal
  nprocs 6
  end
* xyz 0 1
   C       -3.87038        -2.80333        -4.98409
   C       -2.66600        -3.34552        -4.63212
   F       -1.61776        -2.55117        -4.39129
   C       -2.50943        -4.74266        -4.52099
   F       -1.31756        -5.23987        -4.17697
   C       -3.55945        -5.58093        -4.77152
   C       -4.81226        -5.05131        -5.13502
   C       -4.97614        -3.63818        -5.23651
   C       -6.23883        -3.08573        -5.55112
   C       -7.31272        -3.91842        -5.72698
   C       -7.13842        -5.32827        -5.62498
   C       -5.92375        -5.89335        -5.35647
   C       -8.44570        -5.98854        -5.72052
   O       -8.68361        -7.16930        -5.84065
   C       -9.44541        -4.87547        -5.72008
   C       -8.73361        -3.63256        -5.90886
   C       -9.29214        -2.39790        -6.11241
   C      -10.68187        -2.15890        -6.15628
   N      -11.80026        -1.90308        -6.15968
   C       -8.54045        -1.21876        -6.29937
   N       -7.97684        -0.23333        -6.46534
   C      -10.79233        -5.12487        -5.59442
   C      -11.24290        -6.26626        -4.91315
   C      -12.34506        -7.08902        -5.14156
   N      -13.34341        -6.88632        -6.11542
   O      -14.29331        -7.64544        -6.10881
   O      -13.20509        -5.94955        -6.88208
   C      -12.25737        -8.22302        -4.29168
   C      -11.11137        -8.12640        -3.53139
   C      -10.47152        -6.90560        -3.82599
   C       -9.39243        -6.26417        -3.21235
   C       -9.29118        -4.84751        -3.01082
   C       -8.05533        -4.56515        -2.51762
   C       -7.30981        -5.78326        -2.41958
   N       -5.92555        -5.73038        -2.19517
   O       -5.42918        -4.62165        -2.05907
   O       -5.26704        -6.75817        -2.20541
   C       -8.13988        -6.86632        -2.76984
   C       -7.93380        -8.25902        -2.87381
   C       -6.93231        -9.01500        -2.34097
   C       -6.93667       -10.41498        -2.49951
   N       -7.73675       -11.06330        -3.39767
   N       -7.94752       -12.28846        -3.20259
   C       -7.26281       -13.00956        -2.32820
   N       -6.12934       -12.44512        -1.84385
   N       -6.05108       -11.19195        -1.86381
   C       -7.58929       -14.39879        -2.09603
   C       -6.59210       -15.28300        -1.66694
   C       -6.90962       -16.61932        -1.59873
   C       -8.18100       -17.08099        -1.95790
   C       -8.19550       -18.56070        -1.79782
   O       -9.09423       -19.33589        -1.99532
   N       -6.92933       -18.89170        -1.34739
   C       -6.09027       -17.79577        -1.20103
   O       -4.95094       -17.83851        -0.82112
   C       -6.50459       -20.25329        -1.09185
   C       -5.80807       -20.85055        -2.30883
   C       -9.17628       -16.21736        -2.35600
   C       -8.88900       -14.84967        -2.40296
   C       -9.94594       -13.88922        -2.69417
   C      -10.76257       -13.96487        -3.75584
   C      -11.88994       -13.13995        -4.07812
   C      -12.79186       -12.48370        -3.30852
   C      -14.13018       -12.22731        -3.95444
   O      -14.33816       -12.09656        -5.13208
   C      -15.09896       -12.28138        -2.84530
   C      -16.46331       -12.30825        -2.89912
   C      -17.19347       -12.44473        -1.69752
   C      -16.49268       -12.55678        -0.46050
   C      -17.22701       -12.71087         0.73252
   C      -18.59276       -12.75018         0.69991
   C      -19.28534       -12.63728        -0.52381
   C      -18.60152       -12.48625        -1.69780
   F      -20.62162       -12.68275        -0.52440
   F      -19.28789       -12.89840         1.83238
   C      -15.08028       -12.51060        -0.43463
   C      -14.39369       -12.36535        -1.61014
   C      -12.96345       -12.23872        -1.88790
   C      -12.06995       -11.70643        -0.99874
   C      -10.80548       -11.18073        -1.32249
   N       -9.81307       -10.63182        -1.51163
   C      -12.38403       -11.45212         0.35628
   N      -12.57238       -11.24865         1.46895
   H       -3.97302        -1.73181        -5.05397
   H       -3.43276        -6.64672        -4.66427
   H       -6.33170        -2.01326        -5.61243
   H       -5.82211        -6.96470        -5.26745
   H      -11.53493        -4.46015        -6.02197
   H      -12.98002        -9.01806        -4.28367
   H      -10.81413        -8.80110        -2.75152
   H      -10.10091        -4.15571        -3.14710
   H       -7.65696        -3.60460        -2.25266
   H       -8.69939        -8.79047        -3.42322
   H       -6.12182        -8.59687        -1.76514
   H       -5.60793       -14.91675        -1.42105
   H       -7.39872       -20.82827        -0.84056
   H       -5.82320       -20.23100        -0.23806
   H       -6.48142       -20.86070        -3.16292
   H       -5.50377       -21.87027        -2.09212
   H       -4.92460       -20.26817        -2.55951
   H      -10.16286       -16.58132        -2.59806
   H      -10.03871       -13.08001        -1.98692
   H      -10.55583       -14.72877        -4.49612
   H      -12.17674       -13.17649        -5.12600
   H      -16.97685       -12.23102        -3.84511
   H      -16.71360       -12.79369         1.67771
   H      -19.14595       -12.40101        -2.62512
   H      -14.57622       -12.61078         0.51345
*
