# ORCA input file
# SCF done       -228.260641354680          0.000807186519
! CAM-B3LYP def2-SVP def2/J RIJCOSX Grid4 TightSCF
%maxcore 5000
%tddft
    Mode sTDDFT
    Ethresh 5.0
    maxcore 5000
end

%pal
  nprocs 6
  end
* xyz 0 1
   C       -3.13616         2.23993         3.33627
   S       -3.94322         1.42469         4.59610
   C       -3.02443         1.49358         2.18977
   C       -2.31203         1.94077         0.97348
   O       -1.83134         3.05161         0.85411
   C       -2.21379         0.87881        -0.01673
   C       -1.51744         0.84277        -1.20505
   N       -1.73080        -0.35457        -1.79912
   C       -1.08520        -0.80044        -3.00906
   C        0.33435        -1.28313        -2.72099
   C       -2.55713        -1.09854        -1.03218
   C       -2.88692        -0.37454         0.09504
   C       -3.74261        -0.73765         1.21047
   O       -4.50918        -1.68684         1.21262
   C       -3.59537         0.20330         2.33961
   C       -4.08629        -0.01041         3.62519
   C       -4.60411        -1.24459         4.11368
   C       -5.75298        -1.46833         4.84907
   N       -6.56406        -0.52228         5.48496
   O       -7.69753        -0.85077         5.78464
   O       -6.08803         0.58242         5.72236
   C       -6.10258        -2.86540         4.76665
   C       -5.16497        -3.50765         4.03402
   C       -4.12598        -2.57632         3.67816
   C       -2.86654        -2.82283         3.17024
   C       -1.82982        -1.82984         3.00763
   C       -1.02937        -2.19397         1.97720
   C       -1.47600        -3.46554         1.48489
   N       -0.89618        -4.09705         0.38879
   O       -1.20933        -5.25039         0.11837
   O       -0.10766        -3.44185        -0.28621
   C       -2.50287        -3.95157         2.30228
   C       -3.04610        -5.25390         2.24505
   C       -3.43552        -5.93013         3.36583
   C       -4.01725        -7.20670         3.50026
   N       -4.45646        -8.10553         2.55738
   C       -4.31634        -8.04343         1.12150
   C       -2.91736        -8.44393         0.66144
   C       -5.08260        -9.22057         3.15105
   O       -5.56372       -10.13484         2.51336
   C       -5.01089        -8.96875         4.57517
   C       -4.35011        -7.74102         4.75163
   C       -4.28605        -7.45119         6.16937
   O       -3.81885        -6.51876         6.78719
   N       -4.92271        -8.55500         6.76795
   C       -5.08653        -8.63861         8.19989
   C       -6.46816        -8.15972         8.63845
   C       -5.37452        -9.45966         5.83928
   C       -6.07832       -10.63222         6.18821
   C       -6.52708       -11.51836         5.25895
   C       -7.29986       -12.68758         5.48485
   S       -8.10768       -13.26708         4.05857
   C       -7.56332       -13.50857         6.58591
   C       -6.86726       -13.44389         7.88624
   O       -6.08167       -12.56963         8.21956
   C       -7.19009       -14.55359         8.76520
   C       -6.69656       -14.85406        10.01595
   N       -7.30517       -15.97993        10.46018
   C       -7.09873       -16.57392        11.75708
   C       -7.98964       -15.91620        12.80875
   C       -8.19527       -16.40874         9.53577
   C       -8.15137       -15.55154         8.45651
   C       -8.92375       -15.56197         7.23178
   O       -9.80831       -16.38295         7.03083
   C       -8.52381       -14.51677         6.27622
   C       -8.95481       -14.48182         4.94393
   C      -10.02091       -15.20217         4.30692
   S      -11.38691       -15.75148         5.23596
   C      -10.22963       -15.43215         2.94664
   C       -9.26860       -15.17884         1.86807
   O       -8.18540       -14.62979         2.02602
   C       -9.72014       -15.64425         0.56990
   C       -9.07213       -15.57149        -0.64588
   N       -9.88580       -16.07781        -1.59966
   C       -9.54442       -16.23381        -2.99124
   C       -8.96674       -17.62120        -3.26297
   C      -11.04760       -16.48804        -1.03363
   C      -10.99226       -16.23483         0.31802
   C      -11.97646       -16.47059         1.36308
   O      -13.07341       -16.96694         1.18313
   C      -11.48983       -16.04798         2.68985
   C      -12.21980       -16.22535         3.83439
   H       -2.79058         3.24719         3.46597
   H       -0.89568         1.59573        -1.64713
   H       -1.06712         0.03006        -3.72106
   H       -1.67764        -1.61385        -3.43358
   H        0.93835        -0.47016        -2.32570
   H        0.79339        -1.64561        -3.63604
   H        0.31888        -2.08947        -1.99153
   H       -2.85708        -2.08816        -1.31466
   H       -6.98330        -3.27779         5.22051
   H       -5.16868        -4.55114         3.79984
   H       -1.71280        -0.96082         3.62341
   H       -0.18354        -1.66559         1.58069
   H       -3.00771        -5.73978         1.28193
   H       -3.26288        -5.45620         4.32555
   H       -4.57963        -7.04238         0.77188
   H       -5.04477        -8.75707         0.72426
   H       -2.15732        -7.77355         1.05372
   H       -2.86886        -8.41435        -0.42315
   H       -2.69612        -9.45569         0.99286
   H       -4.32025        -7.98895         8.63189
   H       -4.91061        -9.66639         8.52584
   H       -6.61956        -7.12753         8.33188
   H       -6.54911        -8.21635         9.72023
   H       -7.24967        -8.77361         8.19671
   H       -6.24982       -10.82180         7.23456
   H       -6.35956       -11.29526         4.21065
   H       -5.95322       -14.34197        10.59401
   H       -6.04731       -16.45521        12.03169
   H       -7.32440       -17.64091        11.68943
   H       -7.76968       -14.85391        12.88124
   H       -7.81957       -16.37479        13.77848
   H       -9.03753       -16.03524        12.54469
   H       -8.79400       -17.28565         9.68192
   H       -8.09787       -15.18485        -0.87055
   H       -8.81398       -15.46555        -3.25628
   H      -10.44600       -16.08105        -3.59041
   H       -8.06698       -17.77875        -2.67317
   H       -8.71616       -17.71931        -4.31531
   H       -9.68980       -18.39045        -3.00278
   H      -11.84067       -16.92029        -1.61072
   H      -13.19554       -16.66677         3.89523
*
