# ORCA input file
# SCF done       -189.954671826942          0.000907830014
! CAM-B3LYP def2-SVP def2/J RIJCOSX Grid4 TightSCF
%maxcore 5000
%tddft
    Mode sTDDFT
    Ethresh 5.0
    maxcore 5000
end

%pal
  nprocs 6
  end
* xyz 0 1
   C        0.04332         0.07456        -4.62880
   C        1.24140        -0.20261        -5.14656
   C        2.36110        -0.53127        -4.31170
   C        2.23044        -0.76040        -2.98569
   C        0.85839        -0.70336        -2.33485
   C       -0.16888         0.12728        -3.14048
   N       -1.54249        -0.23190        -2.87964
   C       -1.80147        -1.38548        -2.45352
   C       -0.75058        -2.37940        -2.15687
   N        0.46866        -2.07982        -2.11148
   F       -1.12258        -3.63930        -1.96606
   F       -3.06512        -1.73773        -2.25101
   C        3.32071        -1.16905        -2.15696
   C        3.28238        -1.56824        -0.83293
   C        4.54459        -1.89946        -0.34352
   C        5.56264        -1.75342        -1.30498
   S        4.95750        -1.21088        -2.80493
   C        6.80089        -2.10522        -0.72032
   C        6.56454        -2.47706         0.62112
   C        5.14181        -2.35632         0.89997
   C        4.50564        -2.60064         2.08163
   C        5.19335        -3.04417         3.23116
   N        5.74230        -3.40376         4.17133
   C        3.11652        -2.40770         2.23462
   N        1.99042        -2.23703         2.36840
   C        7.72440        -2.83093         1.29347
   C        8.84794        -2.73470         0.47875
   S        8.45357        -2.20080        -1.14898
   C       10.19065        -3.00213         0.84296
   C       11.23950        -2.86374        -0.09362
   C       12.61777        -3.10657         0.24861
   N       13.56329        -2.96364        -0.68490
   C       13.23619        -2.59995        -1.90259
   C       11.86767        -2.34956        -2.24024
   N       10.92557        -2.48884        -1.33748
   C       11.51249        -1.94951        -3.55151
   N       11.25253        -1.62379        -4.61843
   C       14.25204        -2.46046        -2.87947
   N       15.05011        -2.34216        -3.69243
   C       13.01829        -3.48930         1.54889
   C       11.96887        -3.64261         2.48749
   C       10.58477        -3.40678         2.14143
   N        9.78007        -3.61260         3.18373
   S       10.65107        -4.05337         4.45587
   N       12.09628        -4.00784         3.76295
   C       14.38530        -3.68600         1.86358
   C       14.91805        -4.02658         3.10276
   C       16.30109        -4.11775         3.06496
   C       16.83351        -3.85083         1.78414
   S       15.62536        -3.48214         0.63305
   C       18.24113        -3.96797         1.85375
   C       18.60175        -4.29526         3.17674
   C       17.39469        -4.40514         3.97890
   C       17.30630        -4.71147         5.30560
   C       18.45048        -4.97244         6.08771
   N       19.38255        -5.18594         6.72105
   C       16.07076        -4.78794         5.98230
   N       15.07286        -4.85401         6.54292
   C       19.97673        -4.41651         3.34497
   C       20.67564        -4.18032         2.16892
   S       19.59950        -3.79437         0.83606
   C       22.09323        -4.26250         1.98044
   C       22.93670        -4.66485         2.95985
   C       24.35304        -4.77343         2.76374
   C       24.94666        -4.34281         1.64895
   C       24.16735        -3.65996         0.56022
   C       22.65317        -3.98079         0.59080
   N       21.84828        -2.95733        -0.02872
   C       22.27093        -1.77335        -0.07168
   C       23.61556        -1.39727         0.40179
   N       24.49042        -2.25275         0.68292
   F       23.89176        -0.10430         0.52482
   F       21.50206        -0.82926        -0.59731
   H       -0.81698         0.31041        -5.23380
   H        1.39451        -0.19359        -6.21462
   H        3.33048        -0.62574        -4.77928
   H        0.95963        -0.25581        -1.33728
   H       -0.08436         1.18283        -2.84240
   H        2.37511        -1.64156        -0.26390
   H        7.79188        -3.14511         2.31877
   H       14.29572        -4.18758         3.96375
   H       20.44813        -4.65947         4.27873
   H       22.55241        -4.91733         3.93467
   H       24.93411        -5.21123         3.56094
   H       26.01537        -4.36641         1.51776
   H       24.57529        -3.96232        -0.41481
   H       22.47323        -4.88978        -0.00187
*
