# ORCA input file
# SCF done       -209.067122491344          0.000512222593
! CAM-B3LYP def2-SVP def2/J RIJCOSX Grid4 TightSCF
%maxcore 5000
%tddft
    Mode sTDDFT
    Ethresh 5.0
    maxcore 5000
end

%pal
  nprocs 6
  end
* xyz 0 1
   C        1.77804         6.00152        -4.10906
   C        0.66466         5.49718        -4.72466
   C        0.45441         4.11142        -4.78407
   C        1.35902         3.24917        -4.22669
   C        2.51451         3.73434        -3.58145
   C        3.44399         2.84804        -2.99002
   C        4.55053         3.35499        -2.36401
   C        4.77323         4.76298        -2.33347
   C        3.88910         5.64141        -2.89068
   C        2.72931         5.14211        -3.52494
   C        6.04813         5.03787        -1.65193
   O        6.54653         6.10891        -1.39196
   C        6.65081         3.69633        -1.38812
   C        5.63437         2.69595        -1.64201
   C        5.55662         1.44342        -1.09009
   C        6.50569         0.91593        -0.19427
   N        7.24025         0.45772         0.56025
   C        4.46207         0.57208        -1.27358
   N        3.59668        -0.17304        -1.38487
   C        7.96804         3.63374        -1.05567
   C        8.84846         2.52846        -1.09824
   C        8.74131         1.34640        -1.81483
   C        9.82734         0.50479        -1.60330
   C       10.77664         1.04758        -0.71866
   S       10.34551         2.59867        -0.17633
   C       11.81675         0.09338        -0.54020
   C       11.52198        -1.03831        -1.31063
   C       10.26379        -0.82400        -2.00270
   C        9.61336        -1.69122        -2.83054
   C       10.15391        -2.95378        -3.15229
   N       10.61403        -3.97040        -3.41581
   C        8.37164        -1.36392        -3.41459
   N        7.36446        -1.08246        -3.88485
   C       12.48718        -2.04594        -1.17701
   C       13.48508        -1.68016        -0.31211
   S       13.26848        -0.07937         0.33736
   C       14.67326        -2.51816         0.04851
   C       15.46784        -1.93317         1.21859
   N       15.55796        -2.46072        -1.13674
   N       15.97064        -3.39195        -1.77303
   C       15.74517        -4.82884        -1.49166
   C       14.72229        -5.01152        -0.43297
   C       14.22985        -3.90890         0.32136
   N       13.36075        -4.36813         1.17567
   O       13.30685        -5.69095         0.97999
   N       14.13099        -6.08662         0.00322
   C       15.33759        -5.48723        -2.81075
   C       17.08022        -5.30393        -0.99720
   C       18.13259        -5.79701        -1.71835
   C       19.23800        -6.07342        -0.89708
   C       19.00645        -5.76847         0.44946
   S       17.43961        -5.15021         0.71104
   C       20.16790        -6.06690         1.20876
   C       21.14311        -6.56984         0.31946
   C       20.58928        -6.59219        -1.02868
   C       21.20378        -7.00888        -2.17203
   C       22.52678        -7.50044        -2.18164
   N       23.60004        -7.90231        -2.19789
   C       20.55218        -6.97745        -3.42340
   N       20.01984        -6.95202        -4.43843
   C       22.32319        -6.88305         0.96864
   C       22.26311        -6.62859         2.34415
   S       20.69336        -5.98676         2.82439
   C       23.36092        -6.86620         3.18893
   C       23.49083        -6.69034         4.54132
   C       24.67990        -6.95971         5.33311
   C       25.90522        -7.37177         4.87885
   C       27.01836        -7.60580         5.71438
   N       27.96202        -7.81457         6.33366
   C       26.24972        -7.61103         3.53183
   N       26.61125        -7.82046         2.46205
   C       24.34790        -6.68814         6.72879
   C       22.99800        -6.23763         6.79545
   C       22.40203        -5.89912         7.97610
   C       23.14482        -5.99889         9.17333
   C       22.58632        -5.66308        10.42204
   C       23.32540        -5.76857        11.56923
   C       24.65423        -6.21465        11.51687
   C       25.22638        -6.54885        10.31924
   C       24.49476        -6.45152         9.11848
   C       25.08388        -6.79420         7.87897
   C       22.43237        -6.21777         5.44246
   O       21.30124        -5.87709         5.13373
   H        1.94559         7.06755        -4.06076
   H       -0.05959         6.16311        -5.16938
   H       -0.42928         3.73017        -5.27336
   H        1.19984         2.18172        -4.26654
   H        3.26329         1.78662        -3.05677
   H        4.07129         6.70493        -2.84762
   H        8.40991         4.58502        -0.77322
   H        7.92697         1.13805        -2.48477
   H       12.45069        -2.99466        -1.68213
   H       15.85244        -0.95485         0.94111
   H       16.30532        -2.58225         1.46625
   H       14.82023        -1.84438         2.08731
   H       14.33425        -5.16931        -3.08579
   H       15.34559        -6.56762        -2.69832
   H       16.02371        -5.18693        -3.59665
   H       18.10667        -5.95625        -2.77963
   H       23.20650        -7.27733         0.49782
   H       24.22322        -7.25033         2.65730
   H       21.37698        -5.55979         7.99588
   H       21.56241        -5.32053        10.45562
   H       22.89000        -5.50902        12.52252
   H       25.22340        -6.29234        12.43097
   H       26.24937        -6.89243        10.27449
   H       26.10708        -7.13406         7.87500
*
