# ORCA input file
# SCF done       -198.218730347824          0.000981923538
! CAM-B3LYP def2-SVP def2/J RIJCOSX Grid4 TightSCF
%maxcore 5000
%tddft
    Mode sTDDFT
    Ethresh 5.0
    maxcore 5000
end

%pal
  nprocs 6
  end
* xyz 0 1
   C       -1.23083        -0.42268        -1.88475
   C       -1.84058         0.11270        -2.98680
   C       -1.09067         0.82148        -3.93723
   C        0.25804         0.98444        -3.77352
   C        0.91818         0.44666        -2.65022
   C        2.31072         0.61692        -2.47401
   C        2.91777         0.08036        -1.37114
   C        2.15380        -0.65660        -0.41931
   C        0.80691        -0.82896        -0.56058
   C        0.15594        -0.27426        -1.68564
   C        3.04985        -1.16727         0.63137
   O        2.76178        -1.78284         1.63186
   C        4.42846        -0.82198         0.17108
   C        4.30735         0.11427        -0.92733
   C        5.23166         1.04895        -1.31599
   C        6.49663         1.20054        -0.71682
   N        7.52683         1.37284        -0.23954
   C        4.98632         2.03296        -2.29678
   N        4.83890         2.85818        -3.08030
   C        5.48504        -1.45884         0.74454
   C        6.80127        -1.60655         0.25105
   C        7.26293        -1.47441        -1.05037
   C        8.62336        -1.73559        -1.15345
   C        9.21171        -2.07498         0.07880
   S        8.08435        -2.09305         1.35140
   C       10.59795        -2.30082        -0.13347
   C       10.88101        -2.10036        -1.49739
   C        9.65324        -1.73380        -2.18156
   C        9.48235        -1.43188        -3.50047
   C       10.54295        -1.46035        -4.43062
   N       11.39382        -1.48802        -5.19821
   C        8.21686        -1.07817        -4.01497
   N        7.18243        -0.79678        -4.42231
   C       12.23012        -2.30610        -1.80215
   C       12.94627        -2.65950        -0.68205
   S       11.97804        -2.74036         0.76598
   C       14.34356        -2.98546        -0.55731
   N       15.11314        -2.93133        -1.64477
   C       16.38246        -3.25980        -1.47926
   C       16.90242        -3.64980        -0.25563
   C       16.01760        -3.67096         0.83180
   N       14.74016        -3.33035         0.66091
   C       16.43710        -4.06692         2.15735
   C       15.59167        -4.00478         3.20494
   C       15.88451        -4.39511         4.54078
   C       17.02154        -4.99192         5.05764
   C       16.90647        -5.24521         6.42365
   C       15.67166        -4.82803         6.95379
   S       14.65826        -4.13666         5.77071
   C       15.64700        -5.13226         8.33719
   C       16.86400        -5.75871         8.68120
   C       17.70082        -5.83142         7.49372
   C       18.96867        -6.32322         7.39918
   C       19.68057        -6.83559         8.50603
   N       20.29135        -7.24033         9.38718
   C       19.67171        -6.33161         6.17530
   N       20.23920        -6.33028         5.17891
   C       16.92593        -6.13344        10.01791
   C       15.77112        -5.79329        10.70907
   S       14.60252        -4.97163         9.66657
   C       15.40948        -5.93218        12.06609
   C       15.93702        -6.74536        13.02832
   C       15.53595        -6.72336        14.42504
   C       14.88436        -5.70205        15.06651
   C       14.54429        -5.72210        16.43543
   N       14.23243        -5.68269        17.53947
   C       14.50354        -4.48086        14.47159
   N       14.18430        -3.45689        14.06020
   C       16.03509        -7.93904        15.05296
   C       16.81054        -8.65362        14.09646
   C       17.41607        -9.83930        14.39792
   C       17.26580       -10.37771        15.69543
   C       17.86370       -11.59858        16.06448
   C       17.69670       -12.10625        17.32446
   C       16.92662       -11.41404        18.27093
   C       16.33399       -10.22447        17.94509
   C       16.48425        -9.67310        16.65644
   C       15.87270        -8.44483        16.31559
   C       16.81743        -7.92493        12.81706
   O       17.37852        -8.26824        11.79868
   H       -1.80318        -0.96966        -1.14983
   H       -2.90366        -0.00760        -3.13244
   H       -1.58750         1.23831        -4.80043
   H        0.83951         1.53167        -4.50075
   H        2.86761         1.15493        -3.22520
   H        0.24408        -1.38386         0.17526
   H        5.25825        -1.97832         1.67077
   H        6.61936        -1.24247        -1.87919
   H       12.68443        -2.21320        -2.77134
   H       16.99785        -3.20936        -2.36822
   H       17.93838        -3.92261        -0.14040
   H       17.45457        -4.41240         2.26301
   H       14.59497        -3.62645         3.01898
   H       17.88046        -5.23552         4.46049
   H       17.75661        -6.63184        10.48157
   H       14.56678        -5.31450        12.35598
   H       18.00189       -10.35943        13.65469
   H       18.45554       -12.12684        15.33141
   H       18.15645       -13.04396        17.59843
   H       16.80509       -11.82828        19.26054
   H       15.74179        -9.68685        18.67098
   H       15.28206        -7.93856        17.06252
*
