# ORCA input file
# SCF done       -214.955887029642          0.000488324186
! CAM-B3LYP def2-SVP def2/J RIJCOSX Grid4 TightSCF
%maxcore 5000
%tddft
    Mode sTDDFT
    Ethresh 5.0
    maxcore 5000
end

%pal
  nprocs 6
  end
* xyz 0 1
   C        0.39421         3.41506        -0.92658
   C        1.17563         4.16008        -0.08142
   C        2.57906         4.25829        -0.18477
   N        3.71946         4.38405        -0.22056
   C        0.70110         4.89661         1.02427
   N        0.39191         5.50072         1.95075
   C        0.87891         2.56525        -2.00485
   C       -0.21752         1.84330        -2.53906
   C       -0.08304         0.94906        -3.57381
   C        1.19417         0.75838        -4.10871
   C        2.28358         1.48728        -3.57224
   C        2.14776         2.39052        -2.52459
   S        3.76275         1.09966        -4.39217
   C        2.92939        -0.01226        -5.42200
   C        1.60458        -0.09539        -5.17080
   C       -1.45259         2.21638        -1.82977
   O       -2.56605         1.79709        -2.06248
   C       -1.04897         3.26272        -0.85339
   C       -1.88463         4.09709        -0.16614
   C       -3.27740         3.98345         0.03107
   C       -4.12492         2.88442        -0.02821
   C       -5.44084         3.22513         0.25059
   C       -5.61416         4.60208         0.52612
   S       -4.14462         5.45608         0.48419
   C       -6.98873         4.85735         0.73100
   C       -7.68831         3.63809         0.59241
   C       -6.73835         2.57361         0.30901
   C       -7.01227         1.24765         0.14831
   C       -6.00778         0.28051        -0.07404
   N       -5.21022        -0.52732        -0.23174
   C       -8.32852         0.74236         0.21760
   N       -9.39472         0.32327         0.26847
   C       -9.05786         3.78564         0.74718
   C       -9.41523         5.10703         0.99774
   S       -8.02719         6.17702         1.05714
   C      -10.73442         5.60408         1.16344
   C      -10.99160         6.97482         1.39450
   C      -12.31287         7.52293         1.51987
   N      -12.44872         8.84964         1.72681
   C      -11.39870         9.59909         1.81290
   C      -10.09184         9.05650         1.69144
   N       -9.92207         7.79106         1.48873
   F       -9.01246         9.82446         1.77787
   F      -11.57767        10.89775         2.01422
   C      -13.46495         6.70497         1.41691
   C      -13.20743         5.33060         1.20700
   C      -11.88127         4.78090         1.08476
   N      -11.91858         3.46184         0.88842
   S      -13.43856         2.96267         0.86123
   N      -14.14305         4.38708         1.09245
   C      -14.80406         7.17651         1.49063
   C      -15.26067         8.47232         1.70929
   C      -16.64569         8.54955         1.67943
   C      -17.25950         7.30070         1.43623
   S      -16.12555         6.03829         1.25917
   C      -18.65988         7.48862         1.40631
   C      -18.93571         8.85542         1.62618
   C      -17.68080         9.56142         1.82135
   C      -17.53014        10.88559         2.10923
   C      -16.26802        11.48701         2.30244
   N      -15.25017        11.99008         2.45801
   C      -18.64787        11.73837         2.23319
   N      -19.56620        12.41935         2.32270
   C      -20.29350         9.14056         1.62487
   C      -21.06788         8.00767         1.41302
   S      -20.07651         6.57254         1.18136
   C      -22.47233         7.89893         1.31074
   C      -23.43048         8.77313         1.72267
   C      -23.42174         9.92555         2.60020
   C      -22.61124        10.12248         3.68847
   C      -22.75727        11.19616         4.59219
   N      -22.83967        12.04341         5.36141
   C      -21.60621         9.22299         4.09240
   N      -20.79273         8.50592         4.47032
   C      -24.61402        10.70779         2.29407
   C      -25.45616         9.94373         1.44429
   C      -24.79564         8.66737         1.12612
   O      -25.22529         7.73966         0.47993
   C      -26.67701        10.40426         1.01241
   C      -27.07781        11.67835         1.42586
   C      -26.22069        12.43935         2.25830
   C      -24.98968        11.97168         2.70391
   S      -26.91377        13.98547         2.62801
   C      -28.31765        13.60771         1.69133
   C      -28.27647        12.38317         1.12212
   H       -0.93853         0.41356        -3.95524
   H        3.00660         2.92559        -2.15515
   H        3.49270        -0.54315        -6.16465
   H        0.92781        -0.73313        -5.71001
   H       -1.45020         4.99521         0.25787
   H       -3.78332         1.89431        -0.26366
   H       -9.78855         3.00098         0.68040
   H      -14.59064         9.29478         1.87472
   H      -20.71249        10.12503         1.72549
   H      -22.84758         7.03514         0.76988
   H      -27.30260         9.79990         0.37408
   H      -24.36401        12.58837         3.32791
   H      -29.09984        14.33859         1.62287
   H      -29.05871        11.97867         0.50569
*
