# ORCA input file
# SCF done       -210.522514703413          0.000787256650
! CAM-B3LYP def2-SVP def2/J RIJCOSX Grid4 TightSCF
%maxcore 5000
%tddft
    Mode sTDDFT
    Ethresh 5.0
    maxcore 5000
end

%pal
  nprocs 6
  end
* xyz 0 1
   C       -5.15262         4.00085        -9.60637
   C       -5.53835         4.85754       -10.60929
   C       -5.29828         4.63167       -11.97958
   N       -5.13918         4.50766       -13.11045
   C       -6.20854         6.08469       -10.43302
   N       -6.75334         7.09542       -10.38592
   C       -4.43569         2.74416        -9.80921
   C       -4.15845         2.17046        -8.54533
   C       -3.49372         0.97786        -8.40145
   C       -3.08330         0.31470        -9.56299
   C       -3.36681         0.89348       -10.82176
   C       -4.03792         2.10167       -10.96679
   S       -2.77694        -0.09316       -12.12619
   C       -2.16640        -1.25299       -10.97645
   C       -2.39068        -0.92162        -9.68322
  Br       -1.29244        -2.79478       -11.59235
   C       -4.70114         3.04320        -7.48115
   O       -4.62508         2.84158        -6.28674
   C       -5.34788         4.17254        -8.18417
   C       -6.04697         5.18293        -7.57010
   C       -6.21609         5.33065        -6.18393
   C       -6.98322         6.34181        -5.67529
   C       -7.20953         6.56364        -4.30740
   O       -8.03827         7.57385        -3.92296
   C       -8.10290         7.59277        -2.56978
   C       -7.29378         6.57450        -2.06333
   C       -6.72494         5.91373        -3.16396
   O       -5.88186         4.87177        -3.13701
   O       -7.05503         6.22189        -0.77078
   C       -8.91427         8.53257        -1.89166
   C       -9.70725         9.42940        -2.54226
   C      -10.56421        10.38954        -1.95650
   C      -10.69104        10.67415        -0.62980
   C      -11.58957        11.63208        -0.11451
   S      -12.69087        12.49799        -1.14673
   C      -13.36554        13.37538         0.20608
   C      -12.75964        12.97558         1.40224
   C      -11.76276        12.01556         1.21633
   C      -10.96374        11.44448         2.34781
   C      -11.12967        12.27956         3.61411
   C      -12.61923        12.55612         3.86685
   N      -12.92212        13.16667         5.14627
   C      -13.15008        13.46831         2.75724
   C      -14.37650        14.30891        -0.08239
   C      -14.90838        15.26202         0.74680
   C      -15.92857        16.12652         0.34163
   C      -16.44812        17.13333         1.12593
   C      -17.48505        18.02911         0.78524
   C      -17.78236        18.93748         1.75942
   C      -16.98976        18.80934         2.91890
   S      -15.86239        17.48982         2.74287
   C      -17.03027        19.58829         4.06577
   C      -17.87813        20.68172         4.33487
   C      -17.66170        21.25546         5.55436
   C      -16.62904        20.64897         6.30381
   S      -15.95476        19.30475         5.41481
   C      -16.19643        21.01641         7.56183
   C      -15.13974        20.39818         8.22488
   C      -14.69373        20.65724         9.49996
   C      -13.33048        20.23416         9.89087
   O      -12.60228        19.46362         9.30161
   C      -13.03080        21.00551        11.11385
   C      -14.15283        21.78094        11.46913
   C      -15.25581        21.46362        10.54936
   C      -16.60622        21.67655        10.75264
   C      -17.24237        22.68276        11.61588
   O      -16.74422        23.66331        12.13551
   C      -18.69094        22.35759        11.64108
   C      -18.93489        21.25576        10.81984
   C      -17.66188        20.79676        10.21015
   O      -17.54801        19.83588         9.47408
   C      -20.21141        20.74902        10.66965
   C      -21.24560        21.37272        11.35681
   C      -21.00318        22.46909        12.17234
   C      -19.71931        22.97906        12.32249
   C      -14.07268        22.60702        12.57834
   C      -12.88985        22.63947        13.30781
   C      -11.79599        21.86555        12.95441
   C      -11.85969        21.03584        11.84290
   H       -3.29805         0.56783        -7.42301
   H       -4.23042         2.49827       -11.94942
   H       -2.08249        -1.52249        -8.84710
   H       -6.52120         5.92965        -8.19462
   H       -5.73814         4.62878        -5.51839
   H       -7.47478         7.03578        -6.34565
   H       -5.71584         4.62506        -2.21697
   H       -7.55630         6.79213        -0.17884
   H       -8.89088         8.49534        -0.81139
   H       -9.69484         9.39246        -3.62265
   H      -11.17862        10.95726        -2.64404
   H      -10.08131        10.15670         0.09707
   H       -9.90791        11.39512         2.07014
   H      -11.30301        10.42058         2.53936
   H      -10.60167        13.23036         3.50450
   H      -10.69556        11.74752         4.46417
   H      -13.16160        11.60270         3.83411
   H      -12.43178        14.04910         5.24884
   H      -12.64196        12.56400         5.91138
   H      -12.74808        14.47510         2.91386
   H      -14.23626        13.52982         2.84013
   H      -14.74570        14.27818        -1.10110
   H      -14.53048        15.39276         1.74846
   H      -16.34543        16.00826        -0.65030
   H      -17.98151        17.97607        -0.16767
   H      -18.54334        19.69146         1.67015
   H      -18.61785        21.01915         3.63124
   H      -18.21026        22.09800         5.93680
   H      -16.69982        21.85082         8.03066
   H      -14.54888        19.67978         7.66436
   H      -20.38939        19.89617        10.03248
   H      -22.25428        20.99970        11.25499
   H      -21.82553        22.93206        12.69793
   H      -19.52054        23.83026        12.95567
   H      -14.89811        23.23727        12.86392
   H      -12.82527        23.28790        14.16935
   H      -10.89150        21.91052        13.54293
   H      -11.02338        20.42132        11.54577
*
