# ORCA input file
# SCF done       -191.032346812690          0.000825940316
! CAM-B3LYP def2-SVP def2/J RIJCOSX Grid4 TightSCF
%maxcore 5000
%tddft
    Mode sTDDFT
    Ethresh 5.0
    maxcore 5000
end

%pal
  nprocs 6
  end
* xyz 0 1
   C       -6.79537        -1.15654        -2.04392
   C       -6.69540        -1.58961        -0.74730
   C       -6.52725        -2.94041        -0.37732
   N       -6.40780        -4.02230        -0.01186
   C       -6.74661        -0.77366         0.40242
   N       -6.77306        -0.18970         1.39121
   C       -6.67546        -2.00218        -3.22635
   C       -6.78932        -1.18828        -4.37884
   C       -6.70813        -1.69075        -5.65420
   C       -6.49645        -3.06555        -5.80119
   C       -6.38376        -3.87180        -4.64446
   C       -6.47089        -3.36314        -3.35431
   S       -6.12838        -5.54176        -5.05227
   C       -6.17388        -5.13818        -6.74756
   C       -6.37056        -3.82226        -6.99839
  Br       -5.96124        -6.49198        -8.02796
   C       -7.00227         0.21044        -3.96727
   O       -7.25272         1.14491        -4.70906
   C       -6.96647         0.21128        -2.49614
   C       -7.18230         1.29163        -1.68179
   C       -7.14537         2.66732        -1.98492
   S       -8.12023         3.70369        -0.96649
   C       -7.60012         5.12853        -1.80690
   C       -6.68136         4.80692        -2.80232
   C       -6.40839         3.43408        -2.88640
   C       -5.33243         2.90703        -3.78758
   C       -4.61716         1.80339        -3.19546
   N       -4.01326         0.94084        -2.74828
   C       -4.35208         4.02425        -4.16387
   C       -5.13204         5.19234        -4.74390
   C       -6.01560         5.84467        -3.67200
   O       -7.03597         6.64838        -4.24924
   C       -6.56525         7.80230        -4.89429
   C       -8.11515         6.40595        -1.46030
   C       -8.89064         6.61145        -0.36941
   C       -9.48491         7.82938         0.07015
   S       -9.76766         7.95189         1.79081
   C      -10.29432         9.57425         1.63066
   C      -10.28421        10.01231         0.34402
   C      -10.72517        11.38035        -0.06040
   C       -9.84449         9.00951        -0.57593
   C       -9.89704         9.23953        -1.99775
   C      -10.09188         8.29136        -2.93319
   C      -10.10194         8.53469        -4.33927
   C      -10.00393         7.52570        -5.22825
   C       -9.89338         7.70352        -6.64714
   C       -9.44279         6.76013        -7.48698
   C       -8.96254         5.41457        -7.03452
   C       -9.34220         6.96825        -8.97875
   N       -9.81541         8.23760        -9.47306
   C       -9.09175         9.35882        -9.45911
   C       -7.87216         9.48739        -8.85104
   C       -7.07423        10.61911        -9.02493
   C       -5.79184        10.83680        -8.57691
   C       -4.82287         9.98533        -7.94571
   C       -4.74082         8.60864        -7.97736
   C       -3.79832         7.85760        -7.25119
   N       -3.11071         7.16676        -6.64056
   C       -5.52515         7.75080        -8.76600
   N       -6.09127         6.98009        -9.40672
   C       -3.77884        10.84812        -7.38862
   C       -4.00511        12.17649        -7.82543
   C       -5.25547        12.21389        -8.61359
   O       -5.75841        13.17819        -9.15087
   C       -3.15829        13.21192        -7.51915
   C       -2.03608        12.92739        -6.73233
   C       -1.82755        11.60261        -6.28541
   C       -2.68123        10.55268        -6.60371
   S       -0.38783        11.47275        -5.31970
   C       -0.08655        13.17660        -5.53382
   C       -1.01625        13.81195        -6.28560
  Br        1.42632        13.95515        -4.74293
   H       -6.79955        -1.04443        -6.51315
   H       -6.37964        -4.02082        -2.50644
   H       -6.42491        -3.40116        -7.98571
   H       -7.45882         1.08269        -0.65499
   H       -5.81520         2.52084        -4.70101
   H       -3.63391         3.65207        -4.89557
   H       -3.79903         4.34627        -3.27792
   H       -5.77501         4.83968        -5.55460
   H       -4.43696         5.92685        -5.15312
   H       -5.38510         6.48537        -3.02585
   H       -7.44443         8.40040        -5.12777
   H       -6.03605         7.55915        -5.82090
   H       -5.89249         8.37548        -4.24445
   H       -7.86619         7.21883        -2.12416
   H       -9.03428         5.77508         0.30757
   H      -10.58907        10.12075         2.50515
   H      -11.03373        11.94895         0.81284
   H      -11.56390        11.32060        -0.75287
   H       -9.91335        11.91487        -0.55291
   H       -9.82422        10.27436        -2.30774
   H      -10.21151         7.26104        -2.63038
   H      -10.11333         9.56422        -4.67688
   H       -9.94861         6.51611        -4.84953
   H      -10.16580         8.67974        -7.02888
   H       -8.37507         5.50398        -6.12382
   H       -8.34914         4.95143        -7.80352
   H       -9.80449         4.75343        -6.82803
   H       -9.91217         6.17740        -9.47658
   H       -8.28743         6.85036        -9.27290
   H      -10.73125         8.25869        -9.89188
   H       -9.50598        10.19413       -10.01035
   H       -7.51772         8.68584        -8.22746
   H       -7.51252        11.46628        -9.54368
   H       -3.35118        14.21065        -7.87812
   H       -2.47472         9.56095        -6.23773
   H       -0.98541        14.86078        -6.51779
*
