# ORCA input file
# SCF done       -205.007290254929          0.000615013895
! CAM-B3LYP def2-SVP def2/J RIJCOSX Grid4 TightSCF
%maxcore 5000
%tddft
    Mode sTDDFT
    Ethresh 5.0
    maxcore 5000
end

%pal
  nprocs 6
  end
* xyz 0 1
   C       -3.04030        -2.71699         0.05826
   C       -1.79587        -2.49088        -0.45840
   C       -0.79862        -3.48377        -0.58094
   N        0.04912        -4.24744        -0.70071
   C       -1.34222        -1.25469        -0.97108
   N       -0.90217        -0.28987        -1.41028
   C       -3.55672        -3.99081         0.53506
   C       -4.93614        -3.85166         0.83336
   C       -5.70205        -4.89570         1.29336
   C       -5.07755        -6.13260         1.48024
   C       -3.69732        -6.26128         1.18606
   C       -2.92439        -5.20988         0.71361
   S       -3.12774        -7.87456         1.48935
   C       -4.72711        -8.34822         1.99757
   C       -5.64242        -7.35081         1.94552
  Br       -5.03688       -10.11187         2.55134
   C       -5.36801        -2.46776         0.55346
   O       -6.49813        -2.04822         0.53482
   C       -4.11226        -1.73208         0.20222
   C       -4.01476        -0.39963         0.07699
   C       -5.10542         0.53953         0.34801
   N       -5.74094         0.44998         1.51233
   C       -6.70406         1.33189         1.72309
   C       -7.03394         2.31088         0.80268
   C       -6.28202         2.34791        -0.37937
   N       -5.31285         1.45203        -0.58446
   C       -6.47908         3.36006        -1.39314
   C       -5.85158         3.28668        -2.57871
   C       -5.91978         4.26431        -3.63322
   C       -4.98259         4.34131        -4.73000
   C       -3.83875         3.55427        -4.94092
   O       -3.44134         2.54787        -4.09664
   C       -2.69370         2.94952        -2.95012
   C       -1.28874         3.42996        -3.28584
   C       -3.12593         3.78750        -6.10710
   C       -3.48095         4.78931        -7.03683
   C       -4.60453         5.61844        -6.81275
   C       -5.33032         5.36604        -5.65499
   S       -6.77013         6.21585        -5.11018
   C       -6.89671         5.21083        -3.73297
   O       -4.77918         6.56829        -7.75400
   C       -5.99586         7.27494        -7.91514
   C       -7.10344         6.39757        -8.48571
   C       -2.60549         4.84248        -8.13788
   C       -1.60014         3.90389        -8.08555
   S       -1.72458         2.90943        -6.63484
   C       -0.54239         3.64768        -8.98098
   C       -0.20828         4.34483       -10.11224
   C        0.87843         4.03686       -10.97291
   C        1.02833         4.89075       -12.02158
   C        0.06932         5.92924       -12.05193
   S       -1.03592         5.77391       -10.71126
   C       -0.04221         6.96440       -12.96367
   C        0.75615         7.21952       -14.09729
   C        0.39125         8.34131       -14.78385
   C       -0.71187         9.02586       -14.22754
   S       -1.27458         8.19763       -12.79811
   C       -1.27410        10.19999       -14.69514
   C       -2.36942        10.81171       -14.10049
   C       -2.97423        12.00650       -14.43512
   C       -2.55911        13.09764       -15.27015
   C       -1.27024        13.46300       -15.58999
   C       -0.94375        14.57010       -16.39568
   N       -0.61692        15.44458       -17.06569
   C       -0.11262        12.85710       -15.06564
   N        0.87054        12.44356       -14.63812
   C       -3.74565        13.90804       -15.55311
   C       -4.81586        13.43621       -14.75361
   C       -4.35655        12.26146       -13.98082
   O       -4.99223        11.61805       -13.17129
   C       -6.05842        14.01885       -14.76381
   C       -6.25955        15.11366       -15.61260
   C       -5.18929        15.56811       -16.41601
   C       -3.92756        14.98347       -16.39927
   S       -5.65771        16.92454       -17.39747
   C       -7.26311        16.86390       -16.71989
   C       -7.44189        15.88011       -15.80775
  Br       -8.55295        18.10556       -17.28221
   H       -6.75086        -4.75971         1.50554
   H       -1.87775        -5.35642         0.50466
   H       -6.67392        -7.46796         2.22332
   H       -3.09426         0.06620        -0.24628
   H       -7.21550         1.24666         2.67330
   H       -7.82391         3.02063         0.98793
   H       -7.13026         4.18226        -1.13232
   H       -5.23140         2.42185        -2.76045
   H       -2.64657         2.04885        -2.33455
   H       -3.23789         3.72984        -2.40086
   H       -0.75509         3.64288        -2.36391
   H       -1.32096         4.33566        -3.88880
   H       -0.75204         2.65956        -3.83282
   H       -7.72587         5.36203        -3.07025
   H       -5.74079         8.06417        -8.62745
   H       -6.30965         7.74423        -6.97704
   H       -6.77846         5.95676        -9.42497
   H       -7.98731         7.00192        -8.66557
   H       -7.36177         5.59709        -7.79672
   H       -2.73836         5.55053        -8.93328
   H        0.09051         2.80457        -8.73470
   H        1.51573         3.19161       -10.78175
   H        1.80057         4.80816       -12.76466
   H        1.57160         6.57744       -14.37784
   H        0.88657         8.70435       -15.66646
   H       -0.82849        10.62761       -15.58101
   H       -2.88204        10.25525       -13.32035
   H       -6.85268        13.64353       -14.13776
   H       -3.14457        15.36490       -17.03327
   H       -8.36779        15.69977       -15.29270
*
