# ORCA input file
# SCF done       -203.729886709535          0.000957716491
! CAM-B3LYP def2-SVP def2/J RIJCOSX Grid4 TightSCF
%maxcore 5000
%tddft
    Mode sTDDFT
    Ethresh 5.0
    maxcore 5000
end

%pal
  nprocs 6
  end
* xyz 0 1
   C       -7.39333        -1.02514         2.45383
   C       -8.31865        -1.72942         3.18011
   C       -7.99524        -2.68686         4.16271
   N       -7.79068        -3.47553         4.97126
   C       -9.71246        -1.58345         3.02887
   N      -10.85304        -1.49384         2.93348
   C       -5.94154        -1.14391         2.57118
   C       -5.32964        -0.25875         1.64547
   C       -3.96647        -0.14233         1.51786
   C       -3.16562        -0.93723         2.34435
   C       -3.78311        -1.81626         3.26605
   C       -5.16289        -1.93381         3.39412
   S       -2.60862        -2.70222         4.18817
   C       -1.32097        -1.89210         3.33557
   C       -1.74706        -1.00285         2.40703
  Br        0.46180        -2.29753         3.75088
   C       -6.37808         0.45551         0.91100
   O       -6.23239         1.30109         0.03231
   C       -7.65643        -0.03624         1.43468
   C       -8.85394         0.44606         0.96188
   N       -8.85583         1.38014         0.00431
   C       -9.92139         1.98582        -0.56945
   S      -11.55343         1.60240        -0.12042
   C      -12.11571         2.78771        -1.25484
   N      -13.49879         2.97627        -1.38383
   O      -13.87872         3.81510        -2.18000
   O      -14.21700         2.28549        -0.68470
   C      -11.11235         3.43034        -1.92727
   C       -9.82866         2.98449        -1.55304
   C       -8.58447         3.45861        -2.08021
   C       -8.44306         4.51850        -2.90881
   C       -7.19428         4.95702        -3.41753
   C       -6.96605         6.13706        -4.13693
   C       -5.58775         6.28896        -4.42490
   C       -4.80018         5.23762        -3.91155
   S       -5.72578         4.07352        -3.04847
   C       -3.49339         5.44770        -4.35349
   C       -3.52024         6.59018        -5.12764
   N       -4.78168         7.10854        -5.18079
   C       -5.18550         8.18855        -6.05122
   C       -4.49237         9.50808        -5.72058
   C       -2.22228         7.01845        -5.71645
   C       -1.30562         5.79324        -5.59791
   S       -1.91937         4.69670        -4.24325
   C       -8.03532         7.04953        -4.44992
   C       -8.02401         8.37682        -4.15654
   C       -9.02780         9.33987        -4.46100
   C       -8.77207        10.58167        -3.97581
   C       -7.55942        10.67988        -3.24886
   S       -6.74901         9.13330        -3.19974
   C       -7.03806        11.79041        -2.61550
   C       -7.58476        13.09043        -2.54117
   C       -6.83952        13.95660        -1.79834
   C       -5.66721        13.38844        -1.24805
   S       -5.53491        11.71151        -1.71804
   C       -4.76704        14.01129        -0.40753
   C       -3.63519        13.38502         0.10476
   C       -2.75521        13.85654         1.05422
   C       -1.40649        13.25428         1.15154
   O       -1.01413        12.25424         0.58724
   C       -0.63766        14.15199         2.03645
   C        0.67649        14.08701         2.39588
   C        1.20717        15.07765         3.25333
   C        0.35918        16.12529         3.71470
   C        0.89290        17.11055         4.56747
   C        2.20741        17.03846         4.93648
   C        3.05707        16.01602         4.49468
   C        2.55530        15.05281         3.66373
   F        2.71869        17.97823         5.75451
   C       -1.00160        16.16482         3.32688
   C       -1.49507        15.18787         2.50670
   C       -2.84365        14.94130         1.99142
   C       -3.98986        15.51326         2.49574
   C       -5.29513        15.05536         2.23251
   N       -6.38005        14.70163         2.09974
   C       -3.99692        16.56266         3.43466
   N       -4.06879        17.43612         4.17747
   H       -3.53205         0.54004         0.80423
   H       -5.58410        -2.61770         4.11183
   H       -1.09012        -0.41646         1.79098
   H       -9.81167         0.10553         1.33373
   H       -7.90104         1.65904        -0.29685
   H      -11.31556         4.18374        -2.66531
   H       -7.68701         2.93413        -1.78150
   H       -9.30698         5.09593        -3.20452
   H       -6.26656         8.29839        -5.96328
   H       -4.95820         7.90700        -7.08706
   H       -4.57555         9.72818        -4.66008
   H       -4.96103        10.31203        -6.28174
   H       -3.43994         9.47474        -5.98453
   H       -1.81046         7.85744        -5.14593
   H       -2.31259         7.32361        -6.76092
   H       -0.27659         6.05676        -5.36763
   H       -1.32669         5.19582        -6.50978
   H       -8.93850         6.63598        -4.87968
   H       -9.89945         9.07314        -5.03202
   H       -9.41988        11.42886        -4.11027
   H       -8.50730        13.35020        -3.02825
   H       -7.10064        14.98308        -1.61344
   H       -4.97274        15.04171        -0.15685
   H       -3.35386        12.43240        -0.33637
   H        1.30514        13.28732         2.03360
   H        0.26677        17.91074         4.93023
   H        4.08553        16.01034         4.81937
   H        3.19018        14.25421         3.31017
   H       -1.61666        16.97316         3.68894
*
