# ORCA input file
# SCF done       -153.404342349147          0.003067018403
! CAM-B3LYP def2-SVP def2/J RIJCOSX Grid4 TightSCF
%maxcore 5000
%tddft
    Mode sTDDFT
    Ethresh 5.0
    maxcore 5000
end

%pal
  nprocs 6
  end
* xyz 0 1
   C       -4.80026        -5.58154         0.83288
   C       -3.96577        -5.34674         1.85562
   C       -3.80430        -4.13072         2.59855
   C       -2.82037        -4.17224         3.52501
   C       -2.12956        -5.41295         3.59221
   S       -2.82638        -6.55791         2.47037
   C       -1.02816        -5.72342         4.36186
   C       -0.35539        -4.91397         5.30498
   C        0.74346        -5.50715         5.85064
   C        1.00961        -6.80596         5.35602
   S       -0.22179        -7.26876         4.20738
   C        2.09624        -7.59499         5.67365
   C        2.41136        -8.81512         5.08469
   S        1.43666        -9.56855         3.83813
   C        2.55567       -10.90408         3.59241
   C        3.61891       -10.74927         4.48260
   C        3.53381        -9.61922         5.29675
   S        4.91621        -9.54456         6.35205
   C        5.52660       -11.05373         5.62596
   S        6.90064       -11.79785         6.05546
   O        4.71588       -11.51886         4.67570
   C        2.24360       -11.80967         2.58389
   C        2.94855       -12.91543         2.16336
   C        2.57931       -13.69918         1.07149
   C        1.60563       -13.44267         0.11221
   C        1.21166       -14.33042        -0.90770
   C        0.24197       -13.84602        -1.74798
   C       -0.15721       -12.53595        -1.44774
   S        0.71434       -11.94388        -0.06087
   C       -1.09183       -11.72724        -2.09037
   C       -1.96738       -12.05968        -3.13331
   C       -2.74329       -11.01215        -3.55252
   C       -2.50191        -9.80000        -2.87346
   S       -1.28369       -10.04539        -1.64407
   C       -3.10308        -8.59994        -3.21169
   C       -2.91318        -7.30461        -2.74559
   S       -3.72918        -6.02482        -3.66056
   C       -3.02427        -4.72311        -2.71928
   C       -2.25391        -5.30255        -1.71447
   C       -2.17163        -6.70039        -1.72524
   S       -1.10688        -7.21579        -0.44300
   C       -0.82809        -5.51713         0.00060
   S        0.16195        -5.00833         1.18139
   O       -1.52243        -4.67580        -0.76330
   C       -3.16412        -3.36831        -3.02685
   C       -3.77896        -2.90148        -4.16354
   C       -3.82823        -1.55863        -4.52661
   C       -4.33766        -1.08753        -5.71928
   C       -4.36468         0.25715        -6.15298
   C       -4.89349         0.43706        -7.39608
   C       -5.31516        -0.76071        -8.01745
   S       -5.02387        -2.12507        -6.95555
   C       -5.86290        -0.91000        -9.27344
   C       -6.13783         0.11556       -10.21828
   C       -6.66529        -0.32502       -11.38355
   C       -6.84656        -1.74578       -11.45079
   S       -6.30686        -2.47271        -9.92804
   C       -7.33619        -2.46362       -12.47237
   H       -5.47479        -4.81697         0.48734
   H       -4.82745        -6.53182         0.33170
   H       -4.42191        -3.27380         2.39149
   H       -2.54796        -3.34713         4.15674
   H       -0.69032        -3.92216         5.54931
   H        1.38736        -5.04319         6.57684
   H        2.79272        -7.22000         6.41123
   H        1.30508       -11.58327         2.10138
   H        3.82784       -13.21307         2.71810
   H        3.12285       -14.62423         0.92687
   H        1.64456       -15.31122        -0.99533
   H       -0.16905       -14.39575        -2.57542
   H       -2.01488       -13.05079        -3.54705
   H       -3.47054       -11.07617        -4.34264
   H       -3.80622        -8.66945        -4.03391
   H       -2.69829        -2.67457        -2.33944
   H       -4.21398        -3.62515        -4.84268
   H       -3.40883        -0.82503        -3.84857
   H       -3.98342         1.05210        -5.53532
   H       -4.98402         1.39275        -7.88096
   H       -5.93560         1.14829        -9.99910
   H       -6.93674         0.30296       -12.21363
   H       -7.65200        -1.98017       -13.38014
   H       -7.42757        -3.53304       -12.42080
*
