# ORCA input file
# SCF done       -137.044492041850          0.001185484263
! CAM-B3LYP def2-SVP def2/J RIJCOSX Grid4 TightSCF
%maxcore 5000
%tddft
    Mode sTDDFT
    Ethresh 5.0
    maxcore 5000
end

%pal
  nprocs 6
  end
* xyz 0 1
   C        3.43164       -11.76837        -5.49522
   C        2.94703       -10.50000        -5.71321
   N        2.36893        -9.73788        -4.78674
   C        2.21109       -10.15638        -3.54744
   C        2.66536       -11.45705        -3.18324
   C        3.29140       -12.26965        -4.19327
   N        3.67256       -13.45658        -3.71265
   S        3.28274       -13.53136        -2.16000
   N        2.61375       -12.07809        -2.00668
   C        1.58704        -9.26026        -2.61612
   C        1.23230        -9.54487        -1.22748
   N        0.67825        -8.53997        -0.60377
   C        0.62667        -7.52863        -1.51150
   C        1.18643        -7.95521        -2.80049
   C        1.13880        -6.85462        -3.74050
   S        1.66603        -6.81481        -5.30004
   C        0.54591        -5.78441        -3.00006
   C        0.24125        -6.21041        -1.64138
   N       -0.32174        -5.18769        -0.92982
   C       -0.37193        -4.17162        -1.74058
   C        0.16620        -4.44259        -3.08052
   C        0.28063        -3.61629        -4.20026
   C        0.02950        -2.26558        -4.32339
   C        0.16121        -1.53718        -5.52871
   C       -0.11876        -0.20566        -5.41596
   C       -0.47608         0.18462        -4.11097
   S       -0.45999        -1.18756        -3.03314
   C       -0.82663         1.45210        -3.65931
   C       -0.99434         2.64266        -4.40155
   C       -1.41688         3.69616        -3.64684
   C       -1.62289         3.38350        -2.27858
   S       -1.19928         1.71856        -1.98582
   C       -2.01969         4.25227        -1.28300
   C       -2.32300         3.91527         0.04258
   C       -2.21025         4.85617         1.16266
   N       -2.36831         4.32429         2.33663
   C       -2.65108         3.00720         2.11066
   C       -2.66501         2.71713         0.66940
   C       -3.08820         1.37172         0.46177
   S       -3.70517         0.73290        -0.93412
   C       -3.08323         0.77429         1.78229
   C       -2.90104         1.83795         2.78383
   N       -2.94138         1.32162         4.04781
   C       -3.07944         0.03917         3.89671
   C       -3.14449        -0.39947         2.49122
   C       -3.13574        -1.76505         2.04828
   C       -2.85771        -2.10545         0.72908
   N       -2.75314        -3.34417         0.24549
   C       -2.91488        -4.37639         1.02773
   C       -3.21509        -4.20171         2.39228
   C       -3.32539        -2.86694         2.92247
   N       -3.60983        -2.87466         4.22472
   S       -3.72502        -4.40150         4.71952
   N       -3.42385        -5.13022         3.32763
   H        3.89500       -12.35567        -6.26975
   H        3.01470       -10.03901        -6.68916
   H        1.39605       -10.48614        -0.73529
   H       -0.81751        -3.25069        -1.40942
   H        0.63387        -4.11012        -5.09908
   H        0.45400        -2.02126        -6.44356
   H       -0.07149         0.49546        -6.22935
   H       -0.81551         2.68734        -5.46053
   H       -1.61455         4.68098        -4.03171
   H       -2.04837         5.30486        -1.53760
   H       -1.98078         5.90318         1.06004
   H       -3.13914        -0.62381         4.74079
   H       -2.69067        -1.32746        -0.00220
   H       -2.79892        -5.35784         0.59448
*
