# ORCA input file
# SCF done       -225.394368993553          0.000894780767
! CAM-B3LYP def2-SVP def2/J RIJCOSX Grid4 TightSCF
%maxcore 5000
%tddft
    Mode sTDDFT
    Ethresh 5.0
    maxcore 5000
end

%pal
  nprocs 6
  end
* xyz 0 1
   C       -0.24150         0.21982         0.61663
   C       -1.35260         0.96602         0.89624
   F       -2.37766         0.40402         1.56094
   C       -1.47108         2.30991         0.51588
   C       -0.43868         2.89988        -0.15861
   C        0.73162         2.17800        -0.47088
   C        0.83108         0.81083        -0.07872
   C        1.99183         0.06328        -0.38759
   C        3.01832         0.66863        -1.05970
   C        2.92348         2.04176        -1.42789
   C        1.81043         2.78303        -1.15346
   C        4.18056         2.45896        -2.07340
   O        4.45129         3.53016        -2.56504
   C        5.09673         1.28835        -1.93929
   C        4.30537         0.15211        -1.52059
   C        4.57956        -1.17202        -1.74742
   C        5.74006        -1.62938        -2.39986
   N        6.66773        -2.03453        -2.94215
   C        3.68756        -2.22076        -1.43891
   N        2.99424        -3.10731        -1.21637
   C        6.43154         1.49239        -2.12442
   C        7.52424         0.70995        -1.69851
   C        7.56692        -0.30416        -0.75099
   C        8.84859        -0.80573        -0.57474
   C        9.80829        -0.16228        -1.38452
   S        9.12411         1.05759        -2.35127
   C       11.07274        -0.74272        -1.12201
   C       10.91321        -1.75924        -0.16289
   C        9.50748        -1.83870         0.20396
   C        8.92090        -2.70524         1.07866
   C        9.66213        -3.67913         1.77992
   N       10.27200        -4.46274         2.35293
   C        7.53342        -2.66514         1.33303
   N        6.40649        -2.61329         1.53778
   C       12.11453        -2.37367         0.18326
   C       13.18941        -1.82328        -0.49379
   S       12.70308        -0.54276        -1.59331
   C       14.56089        -2.14488        -0.33903
   C       15.64590        -1.49179        -0.89490
   C       16.85639        -2.02510        -0.45513
   C       16.68989        -3.10568         0.43040
   S       15.04527        -3.46113         0.72274
   C       17.96799        -3.53602         0.86362
   C       18.94165        -2.71497         0.26815
   C       18.27662        -1.75404        -0.59887
   C       18.86487        -0.79943        -1.37561
   C       20.26499        -0.63178        -1.41346
   N       21.40403        -0.50107        -1.43463
   C       18.11175         0.07458        -2.18764
   N       17.49680         0.78182        -2.84788
   C       20.23700        -3.01711         0.68173
   C       20.26323        -4.06963         1.58048
   S       18.65516        -4.70444         1.90231
   C       21.40104        -4.60968         2.25405
   C       22.56380        -3.89151         2.41809
   C       23.68117        -4.34787         3.11043
   C       23.71458        -5.68261         3.70940
   C       22.68380        -6.55700         3.66958
   S       21.18980        -6.22640         2.89939
   C       24.98536        -5.78126         4.33926
   C       25.69332        -4.58652         4.18392
   C       26.96502        -4.65631         4.79455
   C       27.17392        -5.86082         5.38907
   S       25.85149        -6.96117         5.23404
   C       24.88130        -3.66624         3.42370
   C       25.13302        -2.31733         3.12108
   C       26.12403        -1.55043         3.66886
   C       26.23271        -0.17542         3.41681
   C       27.00129         0.73598         4.09611
   C       27.28931         2.05462         3.48554
   O       26.76936         2.53041         2.50034
   C       28.37119         2.63915         4.30699
   C       29.05225         3.80673         4.12357
   C       30.06989         4.15986         5.03873
   C       30.36625         3.28538         6.12354
   C       31.38322         3.64088         7.03186
   C       32.07019         4.81162         6.87316
   C       31.77539         5.67616         5.80077
   C       30.79670         5.35810         4.90124
   F       32.46574         6.81822         5.66911
   F       33.03488         5.14931         7.74073
   C       29.64041         2.08280         6.28891
   C       28.65013         1.76780         5.39810
   C       27.71328         0.64389         5.34482
   C       27.43633        -0.19092         6.40182
   C       26.32813        -1.05820         6.48086
   N       25.42092        -1.74481         6.64144
   C       28.17214        -0.20384         7.60348
   N       28.74912        -0.28316         8.59355
   H       -0.18623        -0.81338         0.92183
   H       -2.37198         2.84831         0.76398
   H       -0.50612         3.93397        -0.46139
   H        2.04632        -0.96614        -0.07046
   H        1.75524         3.82008        -1.44874
   H        6.68023         2.43511        -2.60325
   H        6.70772        -0.61649        -0.18652
   H       12.22129        -3.16942         0.89864
   H       15.54244        -0.65999        -1.56846
   H       21.11902        -2.51216         0.33422
   H       22.58342        -2.89249         2.00813
   H       22.72537        -7.52810         4.13673
   H       27.70622        -3.87906         4.79760
   H       28.04580        -6.18264         5.92431
   H       24.42092        -1.82184         2.47316
   H       26.82206        -2.00378         4.35289
   H       25.69543         0.22560         2.56320
   H       28.81618         4.45503         3.29348
   H       31.61903         2.99188         7.86079
   H       30.58266         6.03074         4.08547
   H       29.89150         1.43925         7.11674
*
