# ORCA input file
# SCF done       -179.240375005378          0.000949695820
! CAM-B3LYP def2-SVP def2/J RIJCOSX Grid4 TightSCF
%maxcore 5000
%tddft
    Mode sTDDFT
    Ethresh 5.0
    maxcore 5000
end

%pal
  nprocs 6
  end
* xyz 0 1
   C        1.53445         0.81270         6.19401
   C        0.46824         0.23300         5.57695
   C       -0.00966         1.03317         4.52117
   C        0.72587         2.21413         4.37089
   S        1.98769         2.34070         5.51219
   C        0.18012         2.95514         3.28250
   C       -0.89939         2.23735         2.75538
   C       -1.05020         0.99907         3.50993
   C       -1.96183         0.00833         3.28721
   C       -2.89971         0.07765         2.23618
   N       -3.64958         0.13384         1.37000
   C       -2.01462        -1.15792         4.07848
   N       -2.06149        -2.10898         4.71773
   C       -1.51716         2.88192         1.67971
   C       -0.90518         4.08291         1.37440
   S        0.44757         4.41978         2.45205
   C       -1.20034         5.02548         0.34875
   S       -0.41252         6.57800         0.39966
   C       -1.18298         7.07189        -1.08157
   C       -2.01899         6.07729        -1.55918
   C       -2.02431         4.91725        -0.76032
   C       -2.83514         3.70930        -1.10411
   C       -3.40034         3.77782        -2.52235
   C       -3.96790         5.16520        -2.81512
   C       -5.07342         5.55151        -1.86333
   O       -5.66457         4.81243        -1.13126
   C       -2.84626         6.20629        -2.79884
   C       -0.86182         8.34721        -1.61774
   C       -0.16520         9.35005        -0.96527
   C        0.04638        10.46266        -1.77765
   C       -0.47942        10.30658        -3.06871
   S       -1.25498         8.79844        -3.27205
   C       -0.19159        11.47419        -3.82152
   C        0.50810        12.37241        -3.00103
   C        0.67333        11.77459        -1.68787
   C        1.27788        12.32901        -0.59795
   C        1.82818        13.62711        -0.63538
   N        2.26538        14.68691        -0.66858
   C        1.38246        11.64934         0.63356
   N        1.46881        11.10132         1.63713
   C        0.87002        13.55036        -3.66165
   C        0.45635        13.55501        -4.97844
   S       -0.40284        12.07559        -5.40392
   C        0.65840        14.54136        -5.98544
   S        0.51931        14.07423        -7.65678
   C        0.89671        15.68969        -8.18877
   C        1.11470        16.52925        -7.10915
   C        0.97252        15.88338        -5.86470
   C        1.11454        16.61317        -4.56644
   C        1.00931        18.12271        -4.76914
   C        1.92529        18.58097        -5.91321
   C        3.34411        18.17066        -5.60008
   O        4.09850        18.79450        -4.91116
   C        1.45034        17.98137        -7.23636
   C        0.93762        15.94304        -9.58625
   C        0.80926        14.98984       -10.58223
   C        0.89148        15.54341       -11.85903
   C        1.07656        16.93056       -11.84275
   S        1.15132        17.55479       -10.25535
   C        1.15678        17.39201       -13.18749
   C        1.02022        16.29400       -14.04535
   C        0.84931        15.09565       -13.24797
   C        0.68751        13.81537       -13.69061
   C        0.66627        13.49193       -15.06345
   N        0.64705        13.22320       -16.17810
   C        0.53180        12.72797       -12.80590
   N        0.40595        11.83953       -12.09157
   C        1.08860        16.66204       -15.40371
   C        1.27163        18.00290       -15.54560
   S        1.36599        18.85634       -14.03851
   H        2.09825         0.43615         7.02377
   H        0.05252        -0.71444         5.86746
   H       -2.38266         2.50382         1.17295
   H       -3.66541         3.62761        -0.39694
   H       -2.22177         2.81121        -1.00252
   H       -4.18351         3.02673        -2.62608
   H       -2.61531         3.55913        -3.24887
   H       -4.43085         5.17353        -3.81079
   H       -5.32756         6.63087        -1.91288
   H       -3.26960         7.21287        -2.86225
   H       -2.20771         6.06866        -3.67740
   H        0.16273         9.25520         0.05429
   H        1.44160        14.33922        -3.21324
   H        2.08432        16.37759        -4.11658
   H        0.34036        16.27932        -3.87130
   H        1.28676        18.63444        -3.84726
   H       -0.01936        18.39295        -5.01726
   H        1.89634        19.67376        -5.96632
   H        3.64984        17.21078        -6.06327
   H        2.22493        18.11875        -7.99681
   H        0.56454        18.52386        -7.58287
   H        0.66886        13.94561       -10.36782
   H        1.00810        15.97957       -16.22990
   H        1.36009        18.56262       -16.45497
*
