# ORCA input file
# SCF done       -191.375513366257          0.000905058473
! CAM-B3LYP def2-SVP def2/J RIJCOSX Grid4 TightSCF
%maxcore 5000
%tddft
    Mode sTDDFT
    Ethresh 5.0
    maxcore 5000
end

%pal
  nprocs 6
  end
* xyz 0 1
   C       -3.27002        -3.75486         0.21361
   C       -3.84551        -3.09733         1.25634
   C       -3.42712        -1.75333         1.31183
   C       -2.53015        -1.43016         0.28259
   S       -2.20504        -2.76349        -0.73189
   C       -2.13334        -0.07295         0.43216
   C       -2.79573         0.45459         1.54842
   C       -3.63123        -0.58319         2.13836
   C       -4.41274        -0.46027         3.25293
   C       -4.55414         0.75873         3.94629
   N       -4.69077         1.74662         4.51513
   C       -5.13156        -1.54724         3.78985
   N       -5.70057        -2.43578         4.23978
   C       -2.43994         1.76996         1.82763
   C       -1.49748         2.25687         0.93624
   S       -1.06601         1.06044        -0.27496
   C       -0.86255         3.53390         0.98207
   C       -1.17840         4.46128         1.94229
   C       -0.50851         5.66655         2.13978
   C        0.68491         6.02033         1.36063
   C        1.12255         5.29536         0.30822
   S        0.38664         3.83468        -0.22056
   C        1.19989         7.18826         1.98831
   C        0.40410         7.52319         3.08932
   C        0.87907         8.67110         3.76093
   C        1.99825         9.16612         3.17123
   S        2.51898         8.27073         1.78276
   C       -0.68916         6.59799         3.17170
   C       -1.74285         6.56011         4.13171
   C       -3.00540         6.18656         3.81403
   C       -4.02185         5.90600         4.77483
   O       -3.65517         5.47924         5.99231
   C       -4.76517         5.15227         6.69579
   C       -5.89996         5.41590         5.92272
   C       -5.41555         5.89535         4.67714
   C       -6.19282         6.37001         3.50451
   F       -5.43550         6.97792         2.58014
   F       -6.83846         5.38135         2.84643
   F       -7.14340         7.26797         3.83510
   O       -7.13367         5.19653         6.40206
   C       -8.20659         4.95893         5.50691
   C       -4.62035         4.47194         7.93037
   C       -5.62456         4.21715         8.80192
   C       -5.50613         3.31914         9.90956
   C       -4.61821         2.27100         9.92851
   C       -4.52188         1.31315        10.93671
   C       -5.28344         1.46934        12.18411
   C       -6.22798         2.41603        12.38023
   S       -6.66171         3.58794        11.20403
   C       -4.83737         0.42039        13.03382
   C       -3.89893        -0.36052        12.35983
   C       -3.43728        -1.43747        13.14826
   C       -4.02150        -1.44365        14.37475
   S       -5.15503        -0.15739        14.62177
   C       -3.71507         0.16095        11.02884
   C       -2.90603        -0.47801        10.05872
   C       -2.94856        -0.28262         8.71292
   C       -2.13368        -0.94882         7.76724
   C       -1.16557        -1.92748         7.94643
   C       -0.59021        -2.32625         6.74331
   C       -1.10759        -1.64835         5.62996
   S       -2.31908        -0.52303         6.06929
   C       -0.44733        -2.12403         4.46916
   C        0.47809        -3.10898         4.84449
   C        0.42546        -3.27062         6.27981
   C        1.16657        -4.11897         7.05291
   C        2.12444        -4.99345         6.50122
   N        2.90656        -5.70642         6.05841
   C        1.02550        -4.17417         8.45378
   N        0.91516        -4.22427         9.59474
   C        1.17856        -3.63662         3.74048
   C        0.78714        -3.05517         2.57601
   S       -0.44368        -1.84563         2.78480
   H       -3.40106        -4.77920        -0.07216
   H       -4.52909        -3.55574         1.94751
   H       -2.83752         2.33511         2.64907
   H       -1.96391         4.21667         2.64090
   H        1.98099         5.57679        -0.28100
   H        0.42120         9.10667         4.63032
   H        2.57105        10.02412         3.46456
   H       -1.50866         6.84368         5.14943
   H       -3.28317         6.08834         2.77594
   H       -9.00560         4.54735         6.12167
   H       -7.93005         4.23316         4.73951
   H       -8.55745         5.88154         5.04087
   H       -3.61699         4.12033         8.12707
   H       -6.58118         4.69681         8.66025
   H       -3.96234         2.18908         9.07644
   H       -6.79686         2.48543        13.29395
   H       -2.71363        -2.16776        12.83451
   H       -3.86016        -2.13802        15.17603
   H       -2.23320        -1.23149        10.44687
   H       -3.67035         0.39890         8.28851
   H       -0.90545        -2.32532         8.90960
   H        1.92968        -4.40288         3.80090
   H        1.14070        -3.25181         1.58396
*
