# ORCA input file
# SCF done       -191.161631562168          0.000819618438
! CAM-B3LYP def2-SVP def2/J RIJCOSX Grid4 TightSCF
%maxcore 5000
%tddft
    Mode sTDDFT
    Ethresh 5.0
    maxcore 5000
end

%pal
  nprocs 6
  end
* xyz 0 1
   C       -4.33972         1.15497         1.72427
   C       -5.01636         2.12041         2.42040
   C       -6.38018         2.02682         2.76719
   N       -7.48933         2.00957         3.06161
   C       -4.41917         3.28721         2.94028
   N       -3.98530         4.23928         3.41192
   C       -4.85912        -0.16248         1.38143
   C       -3.76123        -1.02084         1.08067
   C       -3.94634        -2.33430         0.75774
   C       -5.25967        -2.85374         0.70788
   C       -6.36211        -1.99511         0.98755
   C       -6.14056        -0.64121         1.32747
   C       -7.66771        -2.52299         0.92373
   C       -7.87684        -3.83657         0.60344
   C       -6.79093        -4.68206         0.33124
   C       -5.51066        -4.20134         0.38267
   C       -2.50520        -0.25483         1.16523
   O       -1.37404        -0.65575         1.02844
   C       -2.92699         1.16232         1.39570
   C       -2.03688         2.16060         1.19638
   C       -2.26333         3.57041         1.02893
   C       -3.34640         4.14854         0.36729
   C       -3.48980         5.55182         0.21381
   N       -4.60393         5.92828        -0.47656
   C       -5.28295         4.93031        -0.87304
   S       -4.66638         3.35338        -0.43860
   C       -2.56312         6.44651         0.76110
   C       -1.47948         5.87599         1.41570
   C       -1.30102         4.47346         1.51553
   N       -0.15878         4.09798         2.15057
   C        0.52810         5.10869         2.51912
   S       -0.13244         6.67918         2.15577
   C       -2.76393         7.88950         0.65588
   C       -3.07212         8.53022        -0.53621
   C       -3.28984         9.93076        -0.61851
   N       -3.56822        10.37881        -1.87596
   C       -3.54719         9.43397        -2.73063
   S       -3.20143         7.83653        -2.12324
   C       -3.24089        10.74102         0.52182
   C       -2.93978        10.09941         1.71576
   C       -2.68187         8.70517         1.79078
   N       -2.38316         8.26090         3.04332
   C       -2.38135         9.20944         3.89391
   S       -2.75973        10.80222         3.29229
   C       -3.52115        12.17196         0.44303
   C       -2.94567        13.01245        -0.50206
   C       -3.25200        14.39314        -0.57461
   N       -2.57987        15.06439        -1.54847
   C       -1.79703        14.29341        -2.19848
   S       -1.76410        12.62110        -1.71223
   C       -4.14430        15.00773         0.32761
   C       -4.73555        14.15462         1.26147
   C       -4.43979        12.76617         1.31651
   N       -5.16655        12.07414         2.23919
   C       -5.98451        12.83025         2.85818
   S       -5.97627        14.51381         2.41235
   C       -4.42466        16.40330         0.14634
   C       -4.67583        17.33981         1.09656
   C       -5.06636        18.71982         0.84242
   C       -5.54421        19.21860        -0.33873
   C       -5.93407        20.56167        -0.52777
   N       -6.25866        21.64114        -0.74527
   C       -5.75443        18.46597        -1.51473
   N       -5.98509        17.92545        -2.50101
   C       -4.95181        19.45318         2.09554
   C       -4.55000        18.54618         3.11756
   C       -4.38284        17.20091         2.54623
   O       -4.01659        16.20295         3.13242
   C       -4.37072        18.94823         4.40975
   C       -4.59603        20.30130         4.74766
   C       -4.99678        21.21585         3.73109
   C       -5.16820        20.77146         2.40021
   C       -5.22039        22.56338         4.07999
   C       -5.05773        22.98883         5.37023
   C       -4.66206        22.08777         6.37006
   C       -4.43641        20.77278         6.06547
   H       -3.10109        -2.97068         0.54164
   H       -6.99266        -0.01024         1.52621
   H       -8.49992        -1.86859         1.13785
   H       -8.88057        -4.23184         0.55872
   H       -6.97410        -5.71606         0.08016
   H       -4.67103        -4.84796         0.17375
   H       -0.99681         1.85716         1.12874
   H       -6.19161         5.01026        -1.43655
   H        1.46658         5.02500         3.03195
   H       -3.73451         9.58187        -3.77635
   H       -2.16586         9.06474         4.93461
   H       -1.18290        14.62957        -3.01115
   H       -6.64755        12.47910         3.62477
   H       -4.36383        16.71793        -0.88856
   H       -4.06555        18.24050         5.16626
   H       -5.46504        21.48923         1.65203
   H       -5.52592        23.25292         3.30676
   H       -5.23339        24.02250         5.62782
   H       -4.53720        22.44083         7.38281
   H       -4.13184        20.07440         6.83126
*
