# ORCA input file
# SCF done       -215.792896610575          0.000694472375
! CAM-B3LYP def2-SVP def2/J RIJCOSX Grid4 TightSCF
%maxcore 5000
%tddft
    Mode sTDDFT
    Ethresh 5.0
    maxcore 5000
end

%pal
  nprocs 6
  end
* xyz 0 1
   C        2.81685         4.19552        -0.65264
   C        3.87731         4.41994        -1.49520
   C        5.21972         4.21971        -1.11496
   N        6.32619         4.04680        -0.85644
   C        3.80037         4.88886        -2.82096
   N        3.83733         5.31414        -3.88797
   C        2.93957         3.89369         0.77071
   C        1.63636         3.69920         1.30830
   C        1.42764         3.48372         2.63860
   C        2.53408         3.47694         3.51729
   C        3.84290         3.66549         2.98878
   C        4.02830         3.86097         1.60134
   C        4.93962         3.67452         3.87414
   C        4.75327         3.50537         5.21911
   C        3.46452         3.31644         5.73918
   C        2.37841         3.30306         4.90610
   C        0.64579         3.83912         0.22807
   O       -0.54550         3.59603         0.29383
   C        1.40054         4.28235        -0.95907
   C        0.86384         4.64624        -2.16692
   C       -0.45311         4.99279        -2.54097
   C       -1.61126         5.43810        -1.88975
   C       -2.73074         5.57600        -2.79670
   C       -2.39171         5.20643        -4.12475
   S       -0.71582         4.77868        -4.26498
   C       -3.26322         5.20770        -5.19939
   C       -2.80583         4.82497        -6.57438
   C       -2.35045         6.05901        -7.35563
   C       -4.56259         5.64679        -4.94047
   C       -4.89283         6.08828        -3.63922
   C       -4.01867         6.08804        -2.56064
   C       -4.51924         6.65028        -1.26170
   C       -5.26963         5.59866        -0.44004
   S       -6.54657         6.65199        -3.57795
   C       -6.76318         6.28644        -5.25320
   C       -5.66329         5.77430        -5.83999
   C       -1.75718         5.70346        -0.49536
   C       -0.88025         6.27200         0.38301
   C       -1.03703         6.30887         1.79843
   C        0.08172         6.68079         2.47516
   C        1.17551         6.98807         1.63276
   S        0.68351         6.92924        -0.04649
   C        2.51544         7.11574         1.93183
   C        3.18690         6.95591         3.16328
   C        4.54191         6.89556         3.03827
   C        5.01302         7.01502         1.70562
   S        3.66862         7.29156         0.62397
   C        6.31275         6.84195         1.29332
   C        6.80380         6.93272        -0.01478
   C        8.07090         6.51128        -0.48048
   C        8.31301         6.90586        -1.83687
   C        7.12971         7.36614        -2.46410
   S        5.81257         7.51865        -1.32207
   C        7.02382         7.68635        -3.80156
   C        5.73191         8.15683        -4.39620
   C        5.63827         9.68305        -4.35703
   C        8.20691         7.59854        -4.54550
   C        9.41972         7.27809        -3.89262
   C        9.52069         6.95679        -2.54677
   C       10.87846         6.87381        -1.91436
   C       11.41982         8.28724        -1.67853
   S       10.76092         7.33430        -5.00578
   C        9.70038         7.75101        -6.30575
   C        8.40900         7.86081        -5.93269
   C        8.79547         5.59316         0.31773
   C        9.54011         4.51218        -0.06613
   C       10.17913         3.60325         0.86368
   C        9.93352         3.48833         2.21188
   C       10.59436         2.57786         3.06042
   N       11.09935         1.87161         3.81264
   C        8.94578         4.19133         2.92516
   N        8.13729         4.69344         3.57292
   C       11.07316         2.74082         0.09987
   C       10.84991         2.98119        -1.28510
   C        9.82354         4.03343        -1.44334
   O        9.31130         4.38263        -2.48450
   C       11.52929         2.30047        -2.25150
   C       12.49417         1.33974        -1.86958
   C       12.73156         1.10257        -0.48549
   C       12.00329         1.81673         0.49420
   C       13.69765         0.14499        -0.11645
   C       14.39579        -0.54861        -1.06721
   C       14.16085        -0.31491        -2.42992
   C       13.23078         0.60959        -2.82207
   H        0.42703         3.34228         3.02023
   H        5.03364         4.00202         1.23866
   H        5.93197         3.82813         3.47605
   H        5.60163         3.51761         5.88636
   H        3.33518         3.18192         6.80301
   H        1.38278         3.15814         5.30074
   H        1.55394         4.67725        -3.00323
   H       -3.61657         4.32944        -7.11059
   H       -1.97168         4.12456        -6.49299
   H       -3.16446         6.77499        -7.44621
   H       -2.02307         5.77407        -8.35227
   H       -1.52138         6.54182        -6.84395
   H       -5.21560         7.46190        -1.49154
   H       -3.69447         7.07585        -0.68944
   H       -6.15402         5.26943        -0.98007
   H       -5.58503         6.01987         0.51157
   H       -4.65091         4.72410        -0.24917
   H       -7.71861         6.48317        -5.69958
   H       -5.62231         5.49548        -6.87714
   H       -2.69043         5.37994        -0.06112
   H       -1.95422         5.99098         2.26126
   H        0.16978         6.70803         3.54646
   H        2.65641         6.84763         4.09219
   H        5.22290         6.73292         3.85452
   H        7.01405         6.59635         2.07995
   H        4.90043         7.72624        -3.83393
   H        5.65202         7.80882        -5.42626
   H        5.68461        10.03697        -3.32943
   H        4.69933        10.01332        -4.79400
   H        6.45952        10.13051        -4.91320
   H       11.55524         6.33362        -2.57989
   H       10.84273         6.35326        -0.96102
   H       11.49984         8.83103        -2.61658
   H       12.40590         8.23753        -1.22326
   H       10.75747         8.83829        -1.01393
   H       10.11911         7.89258        -7.28332
   H        7.61689         8.11486        -6.61322
   H        8.64872         5.70623         1.38293
   H       11.33654         2.49409        -3.29633
   H       12.20708         1.61762         1.53459
   H       13.87343        -0.03257         0.93464
   H       15.13253        -1.28169        -0.77405
   H       14.72011        -0.87104        -3.16764
   H       13.04540         0.79352        -3.87040
*
