# ORCA input file
# SCF done       -230.649893452851          0.000265594248
! CAM-B3LYP def2-SVP def2/J RIJCOSX Grid4 TightSCF
%maxcore 5000
%tddft
    Mode sTDDFT
    Ethresh 5.0
    maxcore 5000
end

%pal
  nprocs 6
  end
* xyz 0 1
   C       -6.31833        -2.02291         4.73060
   C       -6.06255        -3.25509         4.19729
   C       -4.77313        -3.81489         4.07679
   N       -3.74500        -4.31033         3.96091
   C       -7.07205        -4.07907         3.65447
   N       -7.86238        -4.75178         3.16547
   C       -5.34619        -1.04383         5.19133
   C       -6.01861         0.17229         5.49599
   C       -5.36405         1.29516         5.94823
   C       -3.97908         1.20965         6.11295
   C       -3.31439        -0.00706         5.81488
   C       -3.97698        -1.13899         5.35330
   S       -1.61028         0.12090         6.10564
   C       -1.79399         1.76493         6.61117
   C       -3.07026         2.20595         6.56733
   C       -7.45403         0.00055         5.28467
   O       -8.34670         0.80257         5.47031
   C       -7.63227        -1.41455         4.85934
   C       -8.86410        -1.96892         4.82514
   C      -10.03099        -1.14431         4.98764
   C      -10.91483        -1.16746         6.03970
   N      -10.85127        -2.07826         7.10982
   O       -9.91141        -2.85920         7.12189
   O      -11.72700        -2.03381         7.95103
   C      -11.82678        -0.05330         5.93350
   C      -11.47703         0.67670         4.84817
   C      -10.37538         0.02875         4.17801
   C       -9.88731         0.28494         2.91494
   C       -9.34643        -0.68531         2.01140
   C       -9.30349        -0.14274         0.76252
   C       -9.74090         1.21963         0.83377
   N       -9.74778         2.08307        -0.27245
   O      -10.08736         3.24668        -0.10258
   O       -9.42052         1.62046        -1.35060
   C      -10.05835         1.53106         2.15733
   C      -10.32273         2.81021         2.68818
   C       -9.95629         3.19825         3.94715
   C      -10.15797         4.46387         4.53450
   N      -11.13191         5.38858         4.25611
   C      -12.20379         5.30562         3.28954
   C      -11.84952         6.00602         1.97993
   C      -11.05369         6.50721         5.10853
   O      -11.83540         7.43243         5.07288
   C       -9.90507         6.24122         5.95313
   C       -9.38690         4.98892         5.58724
   C       -8.19784         4.74173         6.37879
   O       -7.38739         3.84132         6.38864
   N       -8.10883         5.86705         7.22112
   C       -7.02286         6.00612         8.16148
   C       -5.91426         6.90602         7.62064
   C       -9.10916         6.77836         6.98038
   C       -9.25919         7.98756         7.68116
   C      -10.30127         8.84800         7.46388
   C      -10.50231        10.04936         8.17282
   C      -11.61026        10.87469         8.05512
   C      -11.47988        11.96956         8.94803
   C      -10.18252        11.78771         9.62767
   C       -9.61787        10.64193         9.16708
   C       -9.60542        12.62382        10.59069
   N       -9.09331        13.27935        11.38284
   C      -12.38095        12.98827         9.18084
   C      -12.24468        14.07615        10.08435
   C      -13.39230        14.84499        10.05344
   C      -14.30194        14.24416         9.08328
   C      -13.70885        13.14440         8.55399
   C      -14.28775        12.30568         7.59350
   N      -14.79738        11.63233         6.81543
   C      -13.62821        16.00477        10.82671
   C      -14.80201        16.69590        10.85652
   C      -14.96882        17.85864        11.63905
   C      -16.04615        18.69285        11.68035
   C      -17.24345        18.78605        10.87197
   C      -17.36955        18.46308         9.54523
   C      -18.55694        18.64497         8.80459
   N      -19.49949        18.75372         8.15895
   C      -16.31566        18.01097         8.72357
   N      -15.49430        17.67661         7.99461
   C      -18.24059        19.50118        11.66221
   C      -17.60983        20.04131        12.81404
   C      -16.19621        19.63036        12.83217
   O      -15.33710        19.93292        13.62753
   C      -18.28685        20.80405        13.73535
   C      -19.64845        21.03525        13.51842
   C      -20.27201        20.47777        12.37516
   C      -19.58689        19.71303        11.43794
   S      -21.95797        20.88061        12.31939
   C      -21.81747        21.77727        13.79155
   C      -20.56953        21.77827        14.30909
   H       -5.91075         2.20004         6.16475
   H       -3.43055        -2.04426         5.14532
   H       -0.91987         2.30725         6.91543
   H       -3.37786         3.19788         6.84375
   H       -9.00534        -3.04074         4.76478
   H      -12.62272         0.12992         6.62958
   H      -11.98830         1.53891         4.46791
   H       -9.12893        -1.70449         2.26915
   H       -8.99746        -0.62113        -0.14861
   H      -10.69219         3.53729         1.97890
   H       -9.36584         2.52209         4.55460
   H      -13.06345         5.81382         3.73774
   H      -12.45598         4.25602         3.12556
   H      -11.64997         7.05750         2.17024
   H      -12.68681         5.93216         1.29205
   H      -10.97510         5.56694         1.50524
   H       -6.63114         4.99801         8.32365
   H       -7.40815         6.38700         9.11104
   H       -5.51498         6.49024         6.69871
   H       -5.11018         6.97777         8.34782
   H       -6.28811         7.90596         7.41230
   H       -8.52425         8.22004         8.43785
   H      -11.04333         8.60092         6.71556
   H      -12.44217        10.70507         7.39989
   H       -8.66868        10.24673         9.47759
   H      -11.38634        14.26031        10.70040
   H      -15.26764        14.62842         8.81508
   H      -12.79616        16.36030        11.42206
   H      -15.64529        16.33292        10.28930
   H      -14.18107        18.09447        12.34795
   H      -17.78005        21.20902        14.59745
   H      -20.10581        19.30352        10.58705
   H      -22.69319        22.25551        14.18536
   H      -20.29471        22.28206        15.21797
*
