# ORCA input file
# SCF done       -232.714553066031          0.000419181291
! CAM-B3LYP def2-SVP def2/J RIJCOSX Grid4 TightSCF
%maxcore 5000
%tddft
    Mode sTDDFT
    Ethresh 5.0
    maxcore 5000
end

%pal
  nprocs 6
  end
* xyz 0 1
   C       -5.17895        -2.45686        -0.68047
   C       -4.35554        -2.84004         0.34386
   C       -3.85461        -4.14958         0.50769
   N       -3.41467        -5.19420         0.68667
   C       -3.91711        -1.99900         1.39018
   N       -3.54288        -1.38999         2.28802
   C       -5.72193        -3.32948        -1.71291
   C       -6.60343        -2.57986        -2.53142
   C       -7.28390        -3.13453        -3.58886
   C       -7.09383        -4.49554        -3.84683
   C       -6.20781        -5.23624        -3.02648
   C       -5.51448        -4.67420        -1.96219
   S       -6.11582        -6.89784        -3.52295
   C       -7.25553        -6.58258        -4.80457
   C       -7.68263        -5.29812        -4.86123
  Br       -7.77439        -7.97666        -5.94530
   C       -6.63227        -1.17933        -2.07557
   O       -7.17821        -0.25144        -2.63126
   C       -5.74182        -1.13126        -0.88033
   C       -5.41122         0.00495        -0.21467
   C       -6.11750         1.24370        -0.32722
   C       -5.42794         2.47370        -0.26422
   C       -6.11686         3.72217        -0.42320
   N       -5.41402         4.84829        -0.58706
   C       -4.12581         4.83370        -0.36089
   C       -3.46007         3.60920        -0.01457
   N       -4.09911         2.46966        -0.05744
   C       -2.07678         3.62572         0.29857
   N       -0.95860         3.68623         0.53680
   C       -3.41619         6.05415        -0.47374
   N       -2.85926         7.05413        -0.51632
   C       -7.53219         3.80686        -0.47181
   C       -8.22649         2.58447        -0.45897
   C       -7.52191         1.32131        -0.39284
   N       -8.36667         0.29387        -0.28664
   S       -9.86667         0.83924        -0.30138
   N       -9.55059         2.40852        -0.41025
   C       -8.09958         5.11636        -0.39805
   N       -9.21286         5.59004        -1.02240
   C      -10.01220         4.91057        -2.01454
   C       -9.22038         4.64231        -3.29048
   C       -9.41444         6.96447        -0.75077
   O      -10.32636         7.60647        -1.22349
   C       -8.33787         7.31617         0.15306
   C       -7.54840         6.16695         0.34733
   C       -6.52836         6.48104         1.33656
   O       -5.67855         5.80535         1.87608
   N       -6.74029         7.83895         1.62422
   C       -5.84591         8.56250         2.49900
   C       -4.85035         9.40875         1.71059
   C       -7.81095         8.35407         0.93910
   C       -8.25109         9.68526         1.08439
   C       -9.28720        10.20710         0.36507
   C       -9.81213        11.51915         0.48925
   C       -9.46976        12.47577         1.48614
   C      -10.06309        13.78805         1.50986
   N       -9.74767        14.65211         2.48932
   C       -8.87208        14.30581         3.39686
   C       -8.25165        13.01646         3.35453
   N       -8.57842        12.14563         2.43032
   C       -7.28949        12.63394         4.32281
   N       -6.50997        12.32438         5.10270
   C       -8.55646        15.20752         4.44625
   N       -8.27148        15.90090         5.31140
   C      -10.95411        14.24043         0.50644
   C      -11.32482        13.28527        -0.46050
   C      -10.77651        11.95048        -0.45114
   N      -11.26865        11.21240        -1.44591
   S      -12.30890        12.07995        -2.28795
   N      -12.20157        13.45057        -1.45503
   C      -11.45624        15.57307         0.55731
   C      -11.91692        16.35538        -0.45175
   C      -11.83000        16.24966        -1.89237
   C      -10.83453        15.63071        -2.60184
   C      -10.77140        15.60107        -4.00966
   N      -10.68921        15.52247        -5.15179
   C       -9.73051        14.99061        -2.00633
   N       -8.80684        14.46815        -1.56744
   C      -12.85583        17.11941        -2.45293
   C      -13.40322        17.91225        -1.41146
   C      -12.77722        17.53389        -0.12952
   O      -12.95108        18.02589         0.95878
   C      -14.37281        18.85905        -1.63764
   C      -14.83030        19.02447        -2.94933
   C      -14.28695        18.21826        -3.97955
   C      -13.30103        17.26593        -3.75294
   S      -15.00299        18.58123        -5.51941
   C      -16.00540        19.79719        -4.77222
   C      -15.81613        19.92493        -3.43701
  Br      -17.20709        20.77859        -5.82415
   H       -7.94604        -2.53707        -4.19572
   H       -4.84680        -5.27849        -1.37127
   H       -8.38367        -4.93108        -5.58836
   H       -4.53484         0.03126         0.42009
   H      -10.85182         5.57809        -2.22583
   H      -10.38587         3.97450        -1.59225
   H       -8.82555         5.57157        -3.69498
   H       -9.86968         4.18786        -4.03329
   H       -8.39047         3.96579        -3.09785
   H       -5.30919         7.80451         3.07557
   H       -6.42589         9.18269         3.18765
   H       -4.24403         8.77659         1.06546
   H       -4.19411         9.93121         2.40042
   H       -5.36475        10.14263         1.09430
   H       -7.73898        10.30861         1.80050
   H       -9.77203         9.60058        -0.39057
   H      -11.51390        16.00689         1.55122
   H      -14.76609        19.45477        -0.82896
   H      -12.92028        16.67042        -4.56613
   H      -16.34938        20.62479        -2.81999
*
