# ORCA input file
# SCF done       -215.786180138819          0.000770764103
! CAM-B3LYP def2-SVP def2/J RIJCOSX Grid4 TightSCF
%maxcore 5000
%tddft
    Mode sTDDFT
    Ethresh 5.0
    maxcore 5000
end

%pal
  nprocs 6
  end
* xyz 0 1
   C        2.06307         6.07795        -2.04064
   C        1.28125         6.69120        -1.09859
   C        0.86313         8.03645        -1.16908
   N        0.48810         9.12099        -1.17158
   C        0.86109         6.06779         0.09377
   N        0.53737         5.60642         1.09450
   C        2.75603         6.76585        -3.12489
   C        3.86891         5.97143        -3.53054
   C        4.73325         6.39085        -4.50104
   C        4.51278         7.63805        -5.12698
   C        3.39022         8.42684        -4.73993
   C        2.51523         7.97060        -3.72710
   C        3.17919         9.66520        -5.37949
   C        4.03560        10.10695        -6.35099
   C        5.14090         9.33048        -6.73019
   C        5.37434         8.12252        -6.13117
   C        3.87576         4.71245        -2.76768
   O        4.68805         3.81906        -2.79686
   C        2.59868         4.72872        -1.98732
   C        2.10221         3.55398        -1.51823
   C        0.77083         3.27507        -1.12898
   S       -0.58119         4.25584        -1.60044
   C       -1.75306         3.32582        -0.69936
   C       -1.10848         2.22732        -0.10312
   C        0.29192         2.22088        -0.36624
   O        0.90295         1.19914         0.25048
   C       -0.08147         0.54191         0.91221
   N        0.25791        -0.61447         1.65944
   O       -0.66286        -1.16873         2.22965
   O        1.41601        -0.96268         1.67516
   C       -1.31838         1.11097         0.74528
   C       -3.03494         3.91051        -0.62175
   N       -4.21819         3.38011        -0.17929
   C       -4.49509         2.02843         0.24400
   C       -4.48667         1.91990         1.76752
   C       -5.25357         4.34652        -0.15257
   O       -6.38689         4.09953         0.19138
   C       -4.61773         5.55845        -0.61798
   C       -3.28515         5.25591        -0.94143
   C       -2.64619         6.48769        -1.33994
   O       -1.52362         6.70823        -1.76451
   N       -3.62201         7.47699        -1.16875
   C       -3.31220         8.84984        -1.49980
   C       -3.90563         9.26126        -2.84373
   C       -4.82228         6.93816        -0.75730
   C       -6.06207         7.54052        -0.45988
   C       -6.42139         8.85564        -0.40823
   C       -7.71502         9.28810        -0.03600
   C       -8.09695        10.60180         0.17090
   C       -9.45582        10.63960         0.58110
   C       -9.91879         9.23748         0.57835
   C       -8.87613         8.44492         0.22304
   C      -11.20469         8.77374         0.88169
   N      -12.24854         8.35738         1.11772
   C      -10.19290        11.73644         0.97458
   C      -11.53163        11.75383         1.45176
   C      -11.86388        13.03744         1.84018
   C      -10.71063        13.89161         1.58138
   C       -9.71566        13.13108         1.05596
   C       -8.45982        13.60559         0.66095
   N       -7.43796        14.01835         0.33671
   C      -13.09665        13.42901         2.41200
   C      -13.36249        14.66349         2.92563
   C      -14.60802        14.96222         3.51974
   C      -14.91457        16.14324         4.13684
   C      -16.17038        16.48962         4.77659
   C      -17.32831        15.75454         4.76982
   C      -18.52150        16.15258         5.40935
   N      -19.52360        16.41386         5.90475
   C      -17.51491        14.51652         4.11992
   N      -17.75276        13.51201         3.61645
   C      -15.99905        17.78811         5.41888
   C      -14.68507        18.26403         5.14365
   C      -13.96755        17.27744         4.32064
   O      -12.83566        17.37481         3.89392
   C      -14.23574        19.46168         5.62097
   C      -15.09516        20.25329         6.41486
   C      -16.41080        19.78402         6.69664
   C      -16.84896        18.54081         6.18576
   C      -17.25962        20.57964         7.49279
   C      -16.83087        21.78084         7.98853
   C      -15.53519        22.24169         7.71088
   C      -14.68593        21.49457         6.94032
   H        5.57524         5.77873        -4.78813
   H        1.66497         8.57760        -3.45805
   H        2.32898        10.26117        -5.08206
   H        3.86657        11.05826        -6.83281
   H        5.80618         9.69424        -7.49880
   H        6.22369         7.52019        -6.41847
   H        2.79168         2.71563        -1.49981
   H       -2.21396         0.74002         1.19603
   H       -3.77194         1.36073        -0.22473
   H       -5.49580         1.78067        -0.12324
   H       -3.55790         2.30643         2.18177
   H       -4.61296         0.88424         2.07118
   H       -5.31021         2.50058         2.17495
   H       -2.22024         8.90809        -1.54824
   H       -3.65298         9.50321        -0.69373
   H       -3.48927         8.64406        -3.63618
   H       -3.65976        10.29934        -3.04785
   H       -4.98762         9.14850        -2.85001
   H       -6.80957         6.80089        -0.20256
   H       -5.71487         9.64307        -0.62261
   H       -7.46438        11.46144         0.06513
   H       -8.90478         7.37523         0.13517
   H      -12.17098        10.89567         1.52053
   H      -10.66682        14.94806         1.76807
   H      -13.86305        12.66394         2.46039
   H      -12.61217        15.43920         2.91185
   H      -15.35378        14.17761         3.49289
   H      -13.23454        19.79931         5.39750
   H      -17.84924        18.21391         6.42078
   H      -18.25642        20.22080         7.70322
   H      -17.48835        22.38300         8.59745
   H      -15.21338        23.19168         8.11055
   H      -13.68723        21.84433         6.72334
*
