# ORCA input file
# SCF done       -233.067315221068          0.000945153127
! CAM-B3LYP def2-SVP def2/J RIJCOSX Grid4 TightSCF
%maxcore 5000
%tddft
    Mode sTDDFT
    Ethresh 5.0
    maxcore 5000
end

%pal
  nprocs 6
  end
* xyz 0 1
   C        0.42503         1.69940         3.76162
   C        0.96589         2.04151         4.96920
   F        1.49685         3.25729         5.14849
   C        0.97264         1.12309         6.03896
   F        1.51088         1.48635         7.20986
   C        0.43800        -0.12550         5.88585
   C       -0.12644        -0.50813         4.65346
   C       -0.13530         0.42005         3.57139
   C       -0.70270         0.06144         2.32749
   C       -1.25064        -1.18523         2.17225
   C       -1.23286        -2.10607         3.25710
   C       -0.68498        -1.79183         4.46750
   C       -1.88191        -3.36201         2.84920
   O       -1.92879        -4.39628         3.47680
   C       -2.33930        -3.13748         1.44819
   C       -1.91717        -1.81263         1.03582
   C       -2.16286        -1.21967        -0.17504
   C       -2.86165        -1.82030        -1.24329
   N       -3.42735        -2.24712        -2.14682
   C       -1.74792         0.08559        -0.51519
   N       -1.42860         1.13377        -0.85616
   C       -2.90186        -4.09933         0.66213
   C       -3.51418        -5.28796         1.13268
   S       -3.54191        -6.71038         0.13151
   C       -4.46746        -7.60371         1.30465
   C       -4.76759        -6.79883         2.40620
   C       -4.23578        -5.49561         2.30623
   C       -4.53829        -4.47497         3.22820
   N       -4.84315        -3.63180         3.94157
   C       -5.54864        -7.22093         3.49880
   N       -6.19059        -7.53379         4.39426
   C       -4.86072        -8.94665         1.12320
   C       -4.61510        -9.65741        -0.01183
   C       -5.04146       -10.99315        -0.18656
   N       -4.86988       -11.71487        -1.34392
   C       -4.28108       -11.24561        -2.57460
   C       -5.24496       -10.36735        -3.36887
   C       -5.42181       -13.00866        -1.24870
   O       -5.41977       -13.80469        -2.16120
   C       -5.93755       -13.07268         0.10375
   C       -5.69964       -11.82432         0.72179
   C       -6.24690       -11.87617         2.06217
   O       -6.27293       -11.05898         2.95877
   N       -6.79517       -13.16465         2.16193
   C       -7.45162       -13.60326         3.37120
   C       -8.96835       -13.45342         3.28352
   C       -6.62299       -13.88870         1.00581
   C       -7.10911       -15.20506         0.83359
   C       -6.79385       -16.00508        -0.21877
   C       -7.35662       -17.29551        -0.37129
   S       -8.80544       -17.73099         0.49347
   C       -6.92476       -18.34562        -1.17449
   C       -5.68904       -18.29803        -1.98948
   O       -4.89939       -17.37406        -1.96560
   C       -5.52485       -19.49275        -2.80254
   C       -4.54179       -19.79594        -3.71924
   N       -4.77389       -21.03640        -4.21039
   C       -4.00307       -21.67875        -5.24540
   C       -4.55996       -21.34708        -6.62836
   C       -5.88801       -21.54840        -3.63945
   C       -6.39292       -20.62253        -2.75075
   C       -7.54630       -20.72237        -1.87667
   O       -8.26548       -21.70139        -1.79602
   C       -7.76682       -19.48078        -1.10041
   C       -8.83126       -19.31764        -0.22181
   C       -9.88774       -20.23166         0.02381
   C      -10.70397       -20.29502         1.10766
   C      -12.03583       -20.95921         1.00340
   O      -12.41400       -21.70207         0.13154
   C      -12.80732       -20.44220         2.15481
   C      -14.12649       -20.62721         2.45316
   C      -14.66625       -20.00075         3.59896
   C      -13.82576       -19.18819         4.41487
   C      -14.37437       -18.55791         5.55002
   C      -15.69374       -18.72841         5.86234
   C      -16.52345       -19.53423         5.05635
   C      -16.02164       -20.15798         3.94863
   F      -17.81305       -19.68220         5.38590
   F      -16.21310       -18.12843         6.94071
   C      -12.46100       -19.02255         4.08708
   C      -11.95876       -19.64503         2.97564
   C      -10.61102       -19.68233         2.41826
   C       -9.45623       -19.42483         3.10735
   C       -8.17225       -19.74326         2.61471
   N       -7.11632       -20.02571         2.26566
   C       -9.42222       -18.86587         4.40045
   N       -9.34458       -18.37210         5.43379
   H        0.42642         2.41518         2.95440
   H        0.44942        -0.81672         6.71391
   H       -0.69020         0.78497         1.52847
   H       -0.69023        -2.51003         5.27299
   H       -2.88744        -3.98167        -0.41429
   H       -5.39721        -9.40380         1.94653
   H       -4.08196        -9.18309        -0.82571
   H       -4.04116       -12.14167        -3.15374
   H       -3.35391       -10.70876        -2.35532
   H       -6.13892       -10.93270        -3.61994
   H       -4.77079       -10.04058        -4.29000
   H       -5.53952        -9.49045        -2.79639
   H       -7.07096       -12.96376         4.17240
   H       -7.17143       -14.63848         3.58244
   H       -9.22896       -12.40854         3.13467
   H       -9.42184       -13.79598         4.20922
   H       -9.37521       -14.03397         2.45810
   H       -7.76224       -15.59604         1.60389
   H       -6.07743       -15.69205        -0.96885
   H       -3.70600       -19.20373        -4.03495
   H       -4.03126       -22.75876        -5.08011
   H       -2.96716       -21.33965        -5.16763
   H       -5.58988       -21.68519        -6.71352
   H       -3.96725       -21.83857        -7.39440
   H       -4.53290       -20.27383        -6.80061
   H       -6.25635       -22.52604        -3.87955
   H      -10.10361       -20.92551        -0.78437
   H      -14.75072       -21.24217         1.82302
   H      -13.75259       -17.94085         6.17969
   H      -16.66981       -20.77084         3.34205
   H      -11.84689       -18.39771         4.71610
*
