# ORCA input file
# SCF done       -222.815018366473          0.000875438702
! CAM-B3LYP def2-SVP def2/J RIJCOSX Grid4 TightSCF
%maxcore 5000
%tddft
    Mode sTDDFT
    Ethresh 5.0
    maxcore 5000
end

%pal
  nprocs 6
  end
* xyz 0 1
   C       -7.53725        -0.84831         2.40141
   C       -8.41545        -1.22067         3.38034
   F       -8.93364        -0.30308         4.20404
   C       -8.78586        -2.57233         3.53592
   F       -9.64626        -2.90782         4.50411
   C       -8.27307        -3.53275         2.70957
   C       -7.36402        -3.18089         1.69278
   C       -6.98911        -1.81452         1.53424
   C       -6.07774        -1.43874         0.52146
   C       -5.55526        -2.40011        -0.30268
   C       -5.92696        -3.76469        -0.13250
   C       -6.81021        -4.15540         0.83374
   C       -5.20264        -4.60110        -1.10469
   O       -5.24745        -5.80902        -1.20528
   C       -4.33457        -3.65901        -1.86202
   C       -4.62008        -2.30913        -1.41625
   C       -4.17505        -1.16413        -2.01787
   C       -3.40509        -1.15980        -3.20149
   N       -2.83116        -1.11351        -4.19383
   C       -4.48888         0.13637        -1.57010
   N       -4.71276         1.21146        -1.23828
   C       -3.30849        -4.07026        -2.65382
   C       -3.17770        -5.40843        -3.11862
   C       -2.07022        -6.23369        -3.01466
   N       -0.83376        -5.87106        -2.45070
   O        0.06997        -6.68329        -2.49921
   O       -0.74400        -4.75939        -1.95303
   C       -2.41226        -7.54973        -3.47145
   C       -3.72832        -7.55157        -3.82442
   C       -4.25733        -6.23047        -3.66116
   C       -5.48458        -5.74411        -4.08327
   C       -5.76256        -4.43117        -4.55174
   C       -7.05059        -4.39744        -5.00993
   C       -7.65765        -5.67372        -4.80804
   N       -9.03808        -5.85577        -5.01211
   O       -9.64923        -4.92916        -5.51498
   O       -9.55922        -6.89948        -4.65425
   C       -6.71557        -6.53964        -4.22871
   C       -6.80962        -7.82031        -3.66472
   C       -7.67708        -8.82739        -4.01467
   C       -7.80627       -10.08352        -3.41056
   N       -7.34161       -10.55658        -2.20787
   C       -6.66399        -9.84018        -1.14783
   C       -7.54245        -8.76192        -0.52344
   C       -7.72206       -11.89833        -1.99076
   O       -7.40297       -12.53741        -1.01531
   C       -8.48304       -12.26036        -3.17636
   C       -8.50957       -11.15307        -4.01598
   C       -9.18979       -11.52230        -5.25020
   O       -9.41968       -10.91082        -6.26408
   N       -9.55587       -12.86824        -5.04129
   C      -10.23625       -13.62244        -6.06798
   C       -9.27268       -14.51036        -6.85154
   C       -9.15537       -13.33363        -3.81482
   C       -9.38273       -14.62661        -3.34429
   C       -9.10998       -15.01160        -2.04792
   C       -9.25277       -16.31370        -1.56226
   C       -9.49697       -16.68947        -0.22486
   N       -9.65234       -15.83824         0.88532
   O       -9.68013       -16.36242         1.98503
   O       -9.76353       -14.63983         0.69084
   C       -9.68505       -18.08854        -0.15927
   C       -9.59015       -18.60703        -1.43049
   C       -9.28511       -17.56011        -2.33589
   C       -8.85722       -17.72911        -3.65587
   C       -7.81354       -17.00477        -4.28127
   C       -7.47345       -17.63055        -5.45718
   C       -8.33076       -18.74119        -5.65232
   N       -8.26608       -19.55568        -6.79003
   O       -7.44054       -19.26545        -7.63974
   O       -9.02501       -20.51320        -6.88250
   C       -9.23045       -18.82265        -4.56639
   C      -10.34127       -19.66326        -4.50416
   C      -11.44288       -19.56127        -3.67893
   C      -12.45480       -20.50619        -3.75980
   C      -13.68570       -20.75808        -3.15154
   C      -13.89842       -21.95442        -3.94129
   C      -14.55500       -23.05133        -4.37669
   S      -13.61312       -23.83412        -5.61610
   C      -12.30695       -22.64025        -5.52719
   C      -12.62098       -21.73409        -4.60367
   H       -7.26550         0.19021         2.29539
   H       -8.56653        -4.56218         2.84226
   H       -5.80657        -0.39943         0.42764
   H       -7.08098        -5.19449         0.94366
   H       -2.49758        -3.39024        -2.88911
   H       -1.71852        -8.36813        -3.50521
   H       -4.25872        -8.36744        -4.27745
   H       -5.04368        -3.63708        -4.62119
   H       -7.56447        -3.56190        -5.44716
   H       -6.06223        -8.01056        -2.90911
   H       -8.31636        -8.69899        -4.87735
   H       -5.72447        -9.41977        -1.51435
   H       -6.42412       -10.59824        -0.39583
   H       -7.86204        -8.03166        -1.26262
   H       -6.97669        -8.24737         0.24760
   H       -8.42401        -9.21187        -0.07336
   H      -10.68181       -12.88471        -6.74072
   H      -11.03539       -14.21483        -5.61462
   H       -8.50935       -13.89984        -7.32693
   H       -9.81506       -15.04677        -7.62472
   H       -8.78402       -15.23376        -6.20217
   H       -9.83424       -15.34020        -4.01862
   H       -8.82813       -14.25266        -1.32601
   H       -9.87558       -18.62866         0.74882
   H       -9.62485       -19.64791        -1.68982
   H       -7.29709       -16.17468        -3.83876
   H       -6.68538       -17.35540        -6.13282
   H      -10.36564       -20.45414        -5.24437
   H      -11.55744       -18.74359        -2.98157
   H      -14.26103       -20.26878        -2.39021
   H      -15.49860       -23.47398        -4.09440
   H      -11.46233       -22.75047        -6.17806
*
