# ORCA input file
# SCF done       -158.887930960174          0.000453422156
! CAM-B3LYP def2-SVP def2/J RIJCOSX Grid4 TightSCF
%maxcore 5000
%tddft
    Mode sTDDFT
    Ethresh 5.0
    maxcore 5000
end

%pal
  nprocs 6
  end
* xyz 0 1
   C        2.00903         2.21911         6.78953
   O        2.95952         2.41393         5.87078
   C        2.36374         2.50030         4.66001
   C        0.98939         2.35594         4.80949
   C        0.76632         2.17186         6.21248
   C       -0.47010         1.98451         6.85335
   N       -1.48042         1.83314         7.37027
   C        0.03150         2.38721         3.78897
   N       -0.73988         2.41491         2.94127
   C        3.11461         2.71361         3.46841
   C        4.45948         2.84724         3.45585
   C        5.24696         3.07232         2.29249
   S        6.97261         3.24576         2.44065
   C        7.16553         3.48719         0.73375
   C        5.91874         3.42645         0.09470
   C        4.85265         3.19387         0.97533
   C        5.70982         3.58323        -1.28581
   N        5.49615         3.70809        -2.40673
   C        8.46143         3.71416         0.21793
   C        8.75818         3.92902        -1.09408
   C       10.07520         4.17243        -1.54265
   N       10.39810         4.41620        -2.85426
   C        9.48274         4.50714        -3.96783
   C        8.75592         5.84865        -4.00085
   C       11.77635         4.63654        -3.02610
   O       12.28997         4.86961        -4.10013
   C       12.32980         4.50107        -1.69369
   C       11.26777         4.21534        -0.80988
   C       11.81931         4.06948         0.52040
   O       11.29985         3.83225         1.59420
   N       13.19414         4.28055         0.35135
   C       14.10709         4.17310         1.46416
   C       14.82775         2.82728         1.48063
   C       13.52362         4.53983        -0.96192
   C       14.83416         4.80427        -1.40344
   C       15.13587         5.09993        -2.70361
   C       16.43460         5.38031        -3.17633
   C       16.75844         5.73953        -4.47361
   C       18.16091         5.92880        -4.57555
   C       18.70702         5.66434        -3.22898
   C       17.67440         5.34940        -2.40751
   C       20.04215         5.76464        -2.81720
   N       21.11541         5.84905        -2.41854
   C       18.88837         6.28702        -5.69120
   C       20.30585         6.37517        -5.81462
   C       20.61133         6.77466        -7.09604
   C       19.37194         6.96602        -7.82737
   C       18.33468         6.66402        -7.00187
   C       16.98491         6.74466        -7.36219
   N       15.89149         6.82970        -7.70349
   C       21.89386         6.97941        -7.67300
   O       21.98835         7.47946        -8.92393
   C       23.28920         7.58414        -9.25803
   C       24.07581         7.13641        -8.20305
   C       23.17193         6.74317        -7.17253
   C       23.53002         6.19690        -5.93262
   N       23.85283         5.73570        -4.93420
   C       25.47412         7.06769        -8.13198
   N       26.61609         7.00208        -8.05475
   C       23.61632         8.10500       -10.55551
   C       24.85269         8.26920       -11.02256
   H        2.30920         2.12731         7.81501
   H        2.52954         2.76613         2.56246
   H        4.99901         2.78712         4.39157
   H        3.83171         3.12070         0.64614
   H        9.26344         3.72056         0.94575
   H        7.97200         3.92197        -1.83280
   H        8.76770         3.68154        -3.92288
   H       10.09327         4.39907        -4.86853
   H        8.16094         5.99427        -3.10209
   H        8.09503         5.88220        -4.86187
   H        9.47459         6.66070        -4.08037
   H       13.49657         4.27208         2.36606
   H       14.82191         5.00011         1.43255
   H       14.10387         2.02029         1.56289
   H       15.49880         2.77985         2.33372
   H       15.40581         2.68003         0.57097
   H       15.62143         4.78242        -0.66425
   H       14.33997         5.13223        -3.43629
   H       16.05894         5.84600        -5.27950
   H       17.75914         5.11399        -1.36306
   H       21.00800         6.15391        -5.03501
   H       19.31025         7.28787        -8.85001
   H       22.75376         8.36716       -11.15363
   H       25.72316         8.01445       -10.44304
   H       25.02290         8.66637       -12.00727
*
