# ORCA input file
# SCF done       -197.324003382184          0.000686719776
! CAM-B3LYP def2-SVP def2/J RIJCOSX Grid4 TightSCF
%maxcore 5000
%tddft
    Mode sTDDFT
    Ethresh 5.0
    maxcore 5000
end

%pal
  nprocs 6
  end
* xyz 0 1
   C      -16.85055       -10.70106         6.00456
   C      -15.65664       -11.07540         5.42928
   C      -15.06861       -12.34532         5.58419
   N      -14.53381       -13.35904         5.66797
   C      -14.84953       -10.26861         4.60403
   N      -14.12882        -9.68834         3.92169
   C      -17.68384       -11.56463         6.84053
   C      -18.83854       -10.84274         7.22712
   C      -19.81970       -11.38265         8.02044
   C      -19.65419       -12.70222         8.45656
   C      -18.49814       -13.41527         8.06588
   C      -17.50509       -12.86803         7.26139
   S      -18.49147       -15.02784         8.71556
   C      -20.02245       -14.72374         9.49270
   C      -20.51479       -13.48138         9.27845
  Br      -20.82592       -16.07697        10.51476
   C      -18.77682        -9.48209         6.64926
   O      -19.61101        -8.60760         6.78563
   C      -17.50986        -9.42665         5.89830
   C      -17.04311        -8.31181         5.22882
   C      -17.70380        -7.09212         5.14110
   C      -17.17368        -6.00200         4.47653
   C      -17.77020        -4.72727         4.33135
   C      -17.01444        -3.82905         3.63665
   C      -15.78310        -4.35828         3.19241
   S      -15.61392        -6.02937         3.68960
   C      -14.80283        -3.72345         2.45704
   C      -14.79654        -2.37602         2.00999
   C      -13.69507        -2.04882         1.29224
   C      -12.76037        -3.11653         1.11838
   S      -13.36092        -4.55605         1.94200
   C      -11.54039        -3.02065         0.53265
   C      -10.56498        -4.07397         0.29906
   C      -10.88666        -5.23575        -0.41194
   C      -12.26600        -5.52991        -0.91454
   C       -9.86647        -6.12158        -0.71924
   C       -8.53635        -5.90541        -0.37759
   C       -7.52178        -6.92536        -0.81662
   C       -6.82066        -6.48160        -2.10233
   C       -8.19816        -4.74272         0.31173
   C       -6.78959        -4.43714         0.73320
   C       -9.21679        -3.84321         0.67009
   C       -8.90352        -2.68230         1.47329
   C       -9.72321        -2.23622         2.45763
   C       -9.58185        -1.03747         3.18171
   C      -10.55803        -0.59801         4.04010
   C      -10.63911         0.63874         4.72310
   C      -11.81399         0.83353         5.38687
   C      -12.71379        -0.25046         5.28320
   S      -12.02096        -1.53446         4.33804
   C      -14.00413        -0.34794         5.78112
   C      -14.76204         0.64572         6.42666
   C      -16.05009         0.27064         6.68969
   C      -16.36553        -1.04044         6.27470
   S      -14.95108        -1.80580         5.58964
   C      -17.55659        -1.74013         6.38857
   C      -18.81812        -1.23947         6.69338
   C      -19.34745         0.03863         6.63627
   C      -18.95622         1.24576         5.97275
   C      -18.14112         1.36814         4.86449
   C      -17.77561         2.59270         4.27891
   N      -17.40388         3.55816         3.77788
   C      -17.63979         0.28600         4.12965
   N      -17.23972        -0.54600         3.44295
   C      -19.74579         2.34023         6.53808
   C      -20.73917         1.78861         7.38382
   C      -20.56901         0.31937         7.42453
   O      -21.26196        -0.48539         8.00914
   C      -21.66919         2.56062         8.03262
   C      -21.60823         3.94754         7.84887
   C      -20.60373         4.48932         7.01498
   C      -19.66796         3.70536         6.34862
   S      -20.70346         6.22285         6.93758
   C      -22.07991         6.19486         8.00781
   C      -22.44518         4.95360         8.40553
  Br      -22.90110         7.80844         8.50093
   H      -20.68830       -10.80613         8.29780
   H      -16.64260       -13.45453         6.99298
   H      -21.44543       -13.12615         9.68197
   H      -16.08263        -8.37917         4.73242
   H      -18.67048        -6.98218         5.61071
   H      -18.74478        -4.52062         4.73794
   H      -17.30363        -2.81265         3.43610
   H      -15.59881        -1.70075         2.24724
   H      -13.50556        -1.07662         0.87223
   H      -11.23841        -2.02834         0.21576
   H      -12.80417        -6.14874        -0.19694
   H      -12.21162        -6.07858        -1.85224
   H      -12.83683        -4.61858        -1.07414
   H      -10.11736        -7.01701        -1.27018
   H       -8.03067        -7.87287        -1.00153
   H       -6.78237        -7.10157        -0.03402
   H       -7.54968        -6.34257        -2.89745
   H       -6.10217        -7.23358        -2.41961
   H       -6.29598        -5.54100        -1.95441
   H       -6.11139        -5.24876         0.49719
   H       -6.74548        -4.25656         1.80621
   H       -6.43026        -3.54195         0.22466
   H       -7.97241        -2.16516         1.28336
   H      -10.58895        -2.83308         2.71106
   H       -8.72418        -0.40254         3.00552
   H       -9.83650         1.35404         4.68596
   H      -12.05498         1.72119         5.94321
   H      -14.35641         1.61251         6.66568
   H      -16.75805         0.88606         7.21450
   H      -17.48469        -2.81267         6.26299
   H      -19.52781        -1.96789         7.07692
   H      -22.42243         2.11219         8.66107
   H      -18.92027         4.16513         5.72384
   H      -23.27013         4.75266         9.06435
*
