# ORCA input file
# SCF done       -210.445191069033          0.000904397200
! CAM-B3LYP def2-SVP def2/J RIJCOSX Grid4 TightSCF
%maxcore 5000
%tddft
    Mode sTDDFT
    Ethresh 5.0
    maxcore 5000
end

%pal
  nprocs 6
  end
* xyz 0 1
   C       -2.79742        -1.89435        -0.13451
   C       -3.44728        -2.50262        -1.17919
   C       -3.13592        -3.79188        -1.65852
   N       -2.93960        -4.83844        -2.08860
   C       -4.48905        -1.94238        -1.94766
   N       -5.33191        -1.57129        -2.63503
   C       -1.66337        -2.45579         0.58637
   C       -1.19555        -1.49289         1.51145
   C       -0.12429        -1.71710         2.34140
   C        0.52209        -2.95398         2.25157
   C        0.04628        -3.91339         1.32620
   C       -1.03910        -3.68688         0.48974
   S        0.98802        -5.37365         1.37974
   C        1.99476        -4.68267         2.62444
   C        1.64561        -3.42499         2.98467
  Br        3.41302        -5.68695         3.33105
   C       -2.02340        -0.27259         1.42275
   O       -1.89045         0.71534         2.11242
   C       -3.05385        -0.56184         0.39343
   C       -4.16283         0.17312         0.09173
   C       -4.51751         1.52084         0.42167
   C       -5.88629         1.85949         0.36323
   C       -6.28338         3.13862         0.64757
   C       -5.33104         4.12433         0.97213
   C       -3.97774         3.81475         0.99100
   C       -3.58012         2.52340         0.71755
   C       -6.02282         5.36842         1.21508
   C       -7.40051         5.16172         1.02696
   C       -7.67756         3.72190         0.66196
   C       -8.35166         3.60652        -0.71761
   C       -7.53771         4.25652        -1.82997
   C       -8.55676         3.03698         1.72575
   C       -7.96329         3.11890         3.12716
   C       -8.28741         6.19987         1.17934
   C       -7.81821         7.46601         1.55642
   C       -6.44256         7.65339         1.74103
   C       -5.54348         6.62158         1.56913
   C       -8.76812         8.54936         1.72941
   C       -8.54943         9.64321         2.47188
   C       -9.49066        10.73022         2.69166
   C       -9.06451        12.03641         2.97513
   N       -7.78669        12.56953         2.94143
   C       -6.78887        12.09572         2.00128
   C       -6.45467        13.13588         0.93399
   C       -7.84964        13.85586         3.45559
   C       -9.19775        14.17941         3.73400
   C       -9.97731        13.01521         3.42139
   C      -11.33575        12.74233         3.49110
   C      -11.76946        11.48236         3.12525
   C      -10.86470        10.49846         2.75196
   C       -9.55500        15.42799         4.22027
   C       -8.55189        16.35339         4.44471
   C       -7.22444        16.02224         4.23795
   C       -6.81787        14.76454         3.77023
   C       -5.42822        14.40100         3.71389
   C       -4.35632        15.23125         3.81450
   C       -3.03050        14.76086         3.78866
   C       -1.91390        15.54654         3.91573
   C       -0.56554        15.11486         3.88735
   C        0.34738        16.11092         4.05723
   C       -0.22358        17.38966         4.23465
   S       -1.97120        17.28649         4.16501
   C        0.43596        18.58425         4.45154
   C        1.82993        18.79841         4.52852
   C        2.17636        20.09195         4.77037
   C        1.08246        20.98527         4.90310
   S       -0.41857        20.09120         4.69235
   C        1.19507        22.32524         5.16685
   C        0.18575        23.29697         5.33413
   C        0.43724        24.64159         5.63725
   C       -0.79486        25.32659         5.74280
   C       -1.09702        26.64228         6.02766
   C       -2.44941        27.00817         6.06027
   C       -3.07467        28.22437         6.31321
   C       -4.48742        28.05432         6.21953
   C       -4.73978        26.72699         5.90808
   C       -3.49556        26.03671         5.80012
   C       -3.20028        24.72718         5.51771
   C       -1.84200        24.35456         5.48773
   C       -1.23581        23.13392         5.24330
   C       -5.43458        29.12438         6.42596
   C       -6.75758        29.01400         6.34130
   H        0.20596        -0.95996         3.03538
   H       -1.36452        -4.45278        -0.19391
   H        2.15761        -2.85130         3.73559
   H       -4.92826        -0.34111        -0.47901
   H       -6.60857         1.09714         0.10744
   H       -3.24299         4.57410         1.21170
   H       -2.53063         2.28616         0.71074
   H       -9.33544         4.07785        -0.66516
   H       -8.50004         2.54971        -0.94814
   H       -7.39099         5.31600        -1.63059
   H       -8.05567         4.15301        -2.78052
   H       -6.56129         3.78532        -1.91836
   H       -8.68762         1.98907         1.44783
   H       -9.54158         3.50891         1.72160
   H       -6.98879         2.63658         3.16231
   H       -8.61827         2.62281         3.83977
   H       -7.84355         4.15565         3.43423
   H       -9.34750         6.05065         1.02994
   H       -6.07215         8.63366         2.00045
   H       -4.48534         6.78795         1.70592
   H       -9.71223         8.43233         1.21326
   H       -7.62013         9.72923         3.02008
   H       -7.21116        11.22262         1.49945
   H       -5.87923        11.77615         2.52133
   H       -7.36652        13.46760         0.44211
   H       -5.79997        12.68997         0.18932
   H       -5.95515        14.00196         1.35938
   H      -12.03093        13.49478         3.83013
   H      -12.82173        11.24313         3.16401
   H      -11.22857         9.50231         2.55024
   H      -10.58859        15.66241         4.42267
   H       -8.79947        17.33639         4.81668
   H       -6.46754        16.74941         4.48568
   H       -5.21440        13.34570         3.62867
   H       -4.48673        16.30078         3.90422
   H       -2.86874        13.69725         3.66446
   H       -0.31512        14.07841         3.74307
   H        1.41200        15.95948         4.06473
   H        2.53559        17.99661         4.40501
   H        3.19046        20.44008         4.86261
   H        2.21035        22.69100         5.27147
   H        1.40914        25.08055         5.77089
   H       -0.32224        27.37097         6.22152
   H       -2.58279        29.15304         6.54395
   H       -5.70311        26.27351         5.76767
   H       -3.97286        23.99623         5.32406
   H       -1.74558        22.21540         5.02030
   H       -4.99439        30.08405         6.66877
   H       -7.23927        28.08138         6.10267
   H       -7.40572        29.85672         6.50855
*
