# ORCA input file
# SCF done       -223.749370293399          0.000884091836
! CAM-B3LYP def2-SVP def2/J RIJCOSX Grid4 TightSCF
%maxcore 5000
%tddft
    Mode sTDDFT
    Ethresh 5.0
    maxcore 5000
end

%pal
  nprocs 6
  end
* xyz 0 1
   C       -3.94650        -9.34847        -3.13197
   C       -3.26407       -10.37520        -3.72208
   F       -1.92489       -10.39717        -3.69367
   C       -3.95666       -11.42200        -4.36021
   F       -3.26301       -12.41855        -4.92698
   C       -5.32297       -11.43205        -4.39234
   C       -6.05325       -10.40015        -3.77444
   C       -5.35469        -9.33331        -3.14122
   C       -6.06952        -8.28843        -2.51043
   C       -7.43702        -8.33318        -2.47791
   C       -8.12493        -9.42710        -3.07241
   C       -7.46532       -10.42484        -3.72754
   C       -9.57035        -9.31564        -2.76884
   O      -10.44071       -10.09513        -3.10063
   C       -9.70087        -8.10630        -1.93817
   C       -8.41839        -7.46219        -1.83439
   C       -8.14007        -6.24302        -1.26130
   C       -9.05944        -5.38718        -0.63183
   N       -9.71843        -4.61557        -0.08859
   C       -6.85527        -5.66447        -1.23751
   N       -5.83267        -5.14428        -1.17366
   C      -10.84364        -7.71318        -1.28063
   C      -12.10479        -8.30030        -1.35099
   C      -13.15704        -7.76953        -0.62776
   C      -14.52721        -8.12140        -0.63521
   C      -15.32158        -7.30901         0.12581
   C      -14.61191        -6.28173         0.78040
   S      -12.90275        -6.41045         0.43668
   C      -15.02470        -5.17685         1.50496
   C      -16.29571        -4.59472         1.71275
   C      -16.24209        -3.32068         2.19900
   C      -14.92235        -2.82111         2.36940
   S      -13.77727        -4.12488         2.12482
   C      -14.49284        -1.54976         2.64588
   C      -13.16345        -1.09877         2.42945
   S      -12.43935        -0.00060         3.58168
   C      -10.93163         0.01355         2.70229
   C      -11.06414        -0.67543         1.50330
   C      -12.29327        -1.33476         1.36680
   C      -12.57670        -2.18627         0.17069
   C      -11.73853        -1.80107        -1.04783
   N      -11.90609        -2.88793        -2.06134
   O      -10.90996        -3.35892        -2.54615
   O      -13.03767        -3.21422        -2.31398
   C      -10.27805        -1.65956        -0.65747
   N       -9.43781        -1.30127        -1.83271
   O       -9.95398        -0.61760        -2.68395
   O       -8.29026        -1.65436        -1.80471
   C      -10.13366        -0.50898         0.33869
   C       -9.76163         0.57877         3.27027
   C       -8.53979        -0.04032         3.21622
   C       -7.28262         0.47334         3.62680
   C       -6.24270        -0.38667         3.44447
   C       -6.62064        -1.64437         2.91814
   S       -8.34215        -1.70356         2.66086
   C       -5.81550        -2.72748         2.60973
   C       -4.40537        -2.79010         2.60436
   C       -3.91660        -3.99961         2.20809
   C       -4.91436        -4.95783         1.91579
   S       -6.49852        -4.26289         2.12540
   C       -4.69277        -6.27143         1.54393
   C       -5.71023        -7.19726         1.36471
   C       -5.62548        -8.52001         0.97568
   C       -6.85053        -9.19123         0.50279
   O       -7.98708        -8.76000         0.56515
   C       -6.40457       -10.44898        -0.12653
   C       -7.14093       -11.40256        -0.76628
   C       -6.47538       -12.49942        -1.35891
   C       -5.05686       -12.58580        -1.27206
   C       -4.39798       -13.67452        -1.87664
   C       -5.11456       -14.63240        -2.53867
   C       -6.51763       -14.54144        -2.62848
   C       -7.18610       -13.49907        -2.04972
   F       -7.19561       -15.48859        -3.29384
   F       -4.49018       -15.67013        -3.10913
   C       -4.32411       -11.59490        -0.57676
   C       -4.98992       -10.54732        -0.00269
   C       -4.51838        -9.42081         0.80820
   C       -3.29934        -9.39067         1.44483
   C       -2.94338        -8.49375         2.47048
   N       -2.60763        -7.82805         3.34433
   C       -2.28432       -10.34677         1.24062
   N       -1.41100       -11.08091         1.10902
   H       -3.39984        -8.54986        -2.65490
   H       -5.83904       -12.24070        -4.88549
   H       -5.51285        -7.48757        -2.05015
   H       -8.00944       -11.23841        -4.18264
   H      -10.75285        -6.85647        -0.62362
   H      -12.27002        -9.15305        -1.99230
   H      -14.89026        -8.94325        -1.22664
   H      -16.38801        -7.41518         0.21794
   H      -17.20464        -5.10675         1.45181
   H      -17.10324        -2.69828         2.36622
   H      -15.19299        -0.84538         3.07543
   H      -13.63835        -2.16722        -0.08176
   H      -12.30920        -3.21913         0.42088
   H      -12.10691        -0.88183        -1.51878
   H       -9.88574        -2.59731        -0.24266
   H      -10.40524         0.42780        -0.16553
   H       -9.09559        -0.42002         0.65186
   H       -9.85589         1.48444         3.85336
   H       -7.18777         1.46955         4.02075
   H       -5.22103        -0.15998         3.69008
   H       -3.79470        -1.94564         2.86839
   H       -2.87190        -4.24214         2.13278
   H       -3.66446        -6.55296         1.37983
   H       -6.72907        -6.83436         1.47440
   H       -8.21627       -11.32541        -0.82147
   H       -3.32413       -13.75992        -1.81638
   H       -8.26085       -13.44301        -2.12581
   H       -3.25183       -11.69199        -0.52154
*
