# ORCA input file
# SCF done       -171.881678834610          0.000360376000
! CAM-B3LYP def2-SVP def2/J RIJCOSX Grid4 TightSCF
%maxcore 5000
%tddft
    Mode sTDDFT
    Ethresh 5.0
    maxcore 5000
end

%pal
  nprocs 6
  end
* xyz 0 1
   C        2.58244       -20.15186       -13.21456
   C        3.22943       -19.16361       -13.84474
   C        3.70961       -19.14835       -15.19806
   C        4.32174       -18.00205       -15.56300
   C        4.38098       -17.01574       -14.53645
   S        3.62123       -17.61806       -13.07397
   C        4.92774       -15.76148       -14.61776
   C        5.55054       -15.14224       -15.73272
   C        5.97936       -13.87556       -15.50674
   C        5.72936       -13.40130       -14.19020
   S        4.91726       -14.66023       -13.24972
   C        6.03933       -12.18125       -13.67628
   N        5.76568       -11.84085       -12.38714
   C        6.00349       -10.65125       -11.79440
   S        6.67615        -9.32858       -12.68880
   C        6.61952        -8.35442       -11.24942
   N        7.09835        -7.06466       -11.37894
   O        7.13359        -6.35354       -10.38214
   O        7.45617        -6.71610       -12.49814
   C        6.10100        -9.00802       -10.15800
   C        5.73424       -10.33190       -10.45074
   C        5.08539       -11.24517        -9.54830
   C        4.66305       -10.92281        -8.31435
   N        3.93460       -11.79870        -7.54520
   C        3.09757       -11.46042        -6.52779
   S        2.68132       -12.68944        -5.37052
   C        1.77951       -11.51811        -4.45751
   N        1.11659       -11.96431        -3.31520
   O        0.47393       -11.15329        -2.67262
   O        1.22886       -13.15094        -3.04431
   C        1.81780       -10.26674        -5.01297
   C        2.53841       -10.21549        -6.22048
   C        2.62578        -8.99891        -7.00059
   C        2.62038        -8.93412        -8.34502
   C        2.85675        -7.74727        -9.10174
   S        2.43894        -7.70361       -10.78895
   C        3.04111        -6.07357       -10.96183
   C        3.54070        -5.60380        -9.75781
   C        3.44348        -6.55607        -8.72942
   S        4.37072        -6.36304        -7.21390
   O        5.29018        -7.47898        -7.20466
   O        3.49453        -6.25020        -6.07336
   C        5.25411        -4.77789        -7.33970
   C        5.44865        -4.33426        -8.77272
   C        4.11892        -4.24605        -9.52514
   C        2.99014        -5.38679       -12.20297
   C        2.54973        -5.92295       -13.36014
   C        2.46372        -5.20904       -14.58987
   S        2.42236        -6.08957       -16.08352
   C        2.32377        -4.62811       -17.02562
   C        2.32568        -3.51439       -16.20616
   C        2.40095        -3.85437       -14.84002
   S        2.22559        -2.63121       -13.54793
   O        3.50797        -2.36387       -12.94372
   O        1.16339        -3.03638       -12.66642
   C        1.73017        -1.14745       -14.46840
   C        2.66398        -1.07091       -15.65645
   C        2.28593        -2.10518       -16.71298
   C        2.26810        -4.78029       -18.45656
   C        1.92153        -3.87615       -19.37048
   H        2.36371       -21.07481       -13.72185
   H        2.26238       -20.05871       -12.19300
   H        3.57114       -20.00290       -15.83632
   H        4.73959       -17.82012       -16.53730
   H        5.65758       -15.65740       -16.67006
   H        6.46936       -13.25528       -16.23550
   H        6.52234       -11.43133       -14.28362
   H        5.33680       -12.56552       -11.82244
   H        5.99954        -8.53480        -9.19573
   H        4.86644       -12.23895        -9.92032
   H        4.85028        -9.95810        -7.87118
   H        3.97461       -12.77999        -7.79021
   H        1.31316        -9.42198        -4.58009
   H        2.66804        -8.09251        -6.41729
   H        2.43745        -9.82214        -8.93648
   H        6.19957        -4.93719        -6.82749
   H        4.63377        -4.08657        -6.77317
   H        5.92554        -3.35180        -8.77567
   H        6.11503        -5.02760        -9.28615
   H        4.27027        -3.73235       -10.47372
   H        3.40492        -3.65582        -8.94100
   H        3.34656        -4.37061       -12.19300
   H        2.26153        -6.96668       -13.39525
   H        1.84900        -0.31276       -13.78302
   H        0.68595        -1.26330       -14.74488
   H        2.63542        -0.07521       -16.10463
   H        3.67975        -1.25423       -15.29800
   H        2.96956        -2.02299       -17.56194
   H        1.27663        -1.88582       -17.07809
   H        2.52535        -5.77836       -18.78945
   H        1.60909        -2.87707       -19.13275
   H        1.92324        -4.13474       -20.41511
*
