# ORCA input file
# SCF done       -213.685977094667          0.000996728792
! CAM-B3LYP def2-SVP def2/J RIJCOSX Grid4 TightSCF
%maxcore 5000
%tddft
    Mode sTDDFT
    Ethresh 5.0
    maxcore 5000
end

%pal
  nprocs 6
  end
* xyz 0 1
   C        0.17207        -0.59692        -1.46339
   C        1.01821         0.47995        -1.25442
   C        0.46173         1.69210        -0.84205
   C        1.30911         2.80492        -0.61588
   N        1.99967         3.69932        -0.43192
   C       -0.92546         1.82922        -0.64193
   C       -1.46058         3.07119        -0.22493
   N       -1.91417         4.06714         0.11251
   C       -1.77298         0.73960        -0.84943
   C       -1.21149        -0.45183        -1.25527
   C       -1.90020        -1.73872        -1.52433
   O       -3.08863        -1.93541        -1.40665
   C       -0.81995        -2.69472        -1.86340
   C        0.43768        -1.97061        -1.88461
   C        1.65041        -2.45039        -2.30551
   C        2.83695        -1.68734        -2.33140
   N        3.83205        -1.11649        -2.36545
   C        1.87893        -3.75190        -2.80225
   N        2.14156        -4.78230        -3.23522
   C       -0.93164        -4.05549        -1.91571
   C       -2.10922        -4.86087        -2.00047
   C       -2.05614        -6.15983        -1.45224
   C       -3.16590        -6.95848        -1.49725
   C       -4.34244        -6.51433        -2.13524
   C       -4.38683        -5.25855        -2.72968
   C       -3.28123        -4.44037        -2.65161
   C       -5.33732        -7.55358        -2.03717
   C       -4.78831        -8.63560        -1.32512
   C       -3.35599        -8.34962        -0.94006
   C       -2.38855        -9.35283        -1.59694
   C       -2.51183        -9.38824        -3.11540
   C       -3.16568        -8.37114         0.58794
   C       -4.09604        -7.40631         1.31353
   C       -5.53609        -9.75677        -1.06665
   C       -6.86114        -9.82879        -1.52657
   C       -7.38686        -8.75147        -2.25591
   C       -6.64240        -7.62016        -2.51021
   C       -7.67804       -10.98419        -1.25069
   N       -7.39384       -11.84570        -0.21129
   C       -8.33970       -12.82194        -0.18673
   C       -8.76037       -13.96439         0.49020
   C       -9.89332       -14.42012        -0.18906
   N      -10.15503       -13.57949        -1.25329
   C       -9.22505       -12.58930        -1.26420
   C       -8.81372       -11.43047        -1.92412
   C      -10.71848       -15.55203         0.06233
   C      -10.61872       -16.35156         1.14550
   C      -11.42366       -17.51163         1.43184
   C      -11.37997       -18.05293         2.72818
   C      -12.13277       -19.15748         3.03544
   C      -12.93548       -19.76974         2.05509
   C      -12.98490       -19.24941         0.76759
   C      -12.23740       -18.13055         0.47008
   C      -13.58795       -20.91270         2.64368
   C      -13.19349       -21.01034         3.99239
   C      -12.25519       -19.88433         4.35339
   C      -10.89441       -20.40888         4.84515
   C      -10.21049       -21.31781         3.83087
   C      -12.88193       -18.97574         5.43012
   C      -14.24252       -18.42162         5.02478
   C      -13.65869       -22.02690         4.78409
   C      -14.58343       -22.94480         4.25575
   C      -14.95632       -22.84475         2.90466
   C      -14.45640       -21.84999         2.09538
   C      -15.08472       -23.99078         5.09560
   C      -16.27487       -24.64485         5.01615
   C      -16.44572       -25.95607         5.68985
   O      -15.71293       -26.46402         6.50539
   C      -17.68067       -26.53272         5.10322
   C      -18.21841       -27.78766         5.29213
   C      -19.38018       -28.11875         4.59176
   C      -19.97011       -27.18548         3.71779
   C      -19.42460       -25.91204         3.54368
   C      -18.27650       -25.58699         4.24524
   C      -17.49527       -24.35077         4.29484
   C      -17.96471       -23.10886         3.95643
   C      -17.29688       -21.90755         4.27441
   N      -16.83457       -20.89884         4.56664
   C      -19.21041       -22.88313         3.33620
   N      -20.20615       -22.66075         2.81095
   C      -21.13535       -27.54671         2.99729
   N      -22.07187       -27.83272         2.40446
   C      -19.96209       -29.39872         4.75467
   N      -20.41728       -30.43961         4.89925
   H        2.08554         0.41131        -1.39194
   H       -2.83809         0.82551        -0.69623
   H       -0.00993        -4.62143        -1.83515
   H       -1.14687        -6.49410        -0.97325
   H       -5.27488        -4.92555        -3.24449
   H       -3.30214        -3.47539        -3.12924
   H       -2.58998       -10.34776        -1.19407
   H       -1.36672        -9.08299        -1.32292
   H       -3.51812        -9.67400        -3.41412
   H       -1.81180       -10.11008        -3.52910
   H       -2.29078        -8.41276        -3.54264
   H       -2.12877        -8.11502         0.81478
   H       -3.34224        -9.38704         0.94829
   H       -3.92037        -6.38357         0.98772
   H       -3.92653        -7.45872         2.38651
   H       -5.13725        -7.65269         1.11650
   H       -5.09798       -10.58961        -0.53566
   H       -8.40655        -8.80773        -2.60288
   H       -7.06981        -6.79668        -3.06195
   H       -6.66819       -11.70263         0.46872
   H       -8.31444       -14.42294         1.34903
   H      -10.92712       -13.68764        -1.88811
   H       -9.24989       -10.98054        -2.79279
   H      -11.48195       -15.74298        -0.68074
   H       -9.88502       -16.10127         1.89958
   H      -10.75740       -17.58195         3.47561
   H      -13.59688       -19.71533         0.00966
   H      -12.26419       -17.73496        -0.53348
   H      -11.04530       -20.95467         5.77869
   H      -10.24841       -19.55525         5.05998
   H      -10.82702       -22.18809         3.61659
   H       -9.25486       -21.66104         4.22024
   H      -10.03189       -20.78689         2.89834
   H      -12.19514       -18.14915         5.62615
   H      -12.98544       -19.55040         6.35278
   H      -14.16212       -17.83267         4.11355
   H      -14.63014       -17.78095         5.81333
   H      -14.95594       -19.22387         4.85500
   H      -13.36475       -22.11134         5.81988
   H      -15.61334       -23.59374         2.48551
   H      -14.73815       -21.79828         1.05461
   H      -14.41129       -24.35812         5.86417
   H      -17.75276       -28.49539         5.96103
   H      -19.89902       -25.22153         2.86411
*
