# ORCA input file
# SCF done       -199.301913833097          0.000689305488
! CAM-B3LYP def2-SVP def2/J RIJCOSX Grid4 TightSCF
%maxcore 5000
%tddft
    Mode sTDDFT
    Ethresh 5.0
    maxcore 5000
end

%pal
  nprocs 6
  end
* xyz 0 1
   C       -4.10780        -3.73579        11.47107
   S       -3.73597        -5.10309        10.53900
   C       -5.03117        -4.80820         9.40851
   C       -5.74691        -3.65817         9.79396
   C       -5.20003        -3.04988        10.97276
   C       -5.80303        -1.89918        11.50973
   C       -6.90844        -1.34302        10.91645
   C       -7.53971        -0.17279        11.62055
   F       -7.05379        -0.00310        12.85968
   F       -7.33613         1.00773        10.99786
   F       -8.86802        -0.30029        11.77151
   C       -7.45401        -1.92546         9.72969
   O       -8.55470        -1.51391         9.05503
   C       -8.83141        -0.14275         8.82609
   C       -6.87688        -3.07191         9.21545
   C       -5.17834        -5.69051         8.31724
   C       -4.53260        -6.91211         8.19259
   C       -4.90479        -7.52006         6.97488
   C       -5.81734        -6.56823         6.33803
   C       -5.99019        -5.48824         7.11712
   F       -6.37799        -6.76559         5.13828
   C       -4.51417        -8.74754         6.46474
   C       -4.91067        -9.35944         5.25668
   C       -4.28026       -10.59431         5.14171
   C       -3.44044       -10.78126         6.32483
   C       -3.58678        -9.69179         7.09420
   F       -2.98666        -9.46578         8.26942
   C       -4.38254       -11.54899         4.11774
   C       -5.15957       -11.40475         2.99590
   C       -5.29553       -12.33902         1.96494
   S       -6.33359       -11.98018         0.59376
   C       -6.03293       -13.49713        -0.21749
   C       -5.14534       -14.26499         0.56458
   C       -4.74589       -13.61029         1.76756
   N       -3.90331       -14.43364         2.43664
   C       -3.75925       -15.58312         1.69994
   N       -2.92863       -16.60822         2.17870
   O       -2.37310       -16.39862         3.24791
   O       -2.81483       -17.61672         1.51170
   C       -4.50683       -15.51946         0.54069
   C       -6.63865       -13.78386        -1.44186
   C       -7.52699       -12.96061        -2.13272
   C       -7.92524       -13.60276        -3.32054
   C       -7.21471       -14.88253        -3.32304
   C       -6.45413       -15.00403        -2.22261
   F       -7.32503       -15.78910        -4.30178
   C       -8.80988       -13.15305        -4.29111
   C       -9.22869       -13.81027        -5.46593
   C      -10.14234       -13.00701        -6.13672
   C      -10.31448       -11.77619        -5.36305
   C       -9.52547       -11.87212        -4.28271
   F       -9.38306       -10.95456        -3.31801
   C      -10.84093       -13.26070        -7.33364
   C      -10.64284       -14.36405        -8.11527
   C      -11.31459       -14.70930        -9.30480
   S      -10.58613       -15.93649       -10.30175
   C      -11.78832       -15.81208       -11.49720
   C      -12.75831       -14.88462       -11.16709
   C      -12.50366       -14.25293        -9.90448
   C      -13.45735       -13.34645        -9.41165
   C      -14.56353       -13.04821       -10.15953
   C      -15.59257       -12.08060        -9.64797
   F      -15.27106       -11.58279        -8.44084
   F      -15.75005       -11.01763       -10.45296
   F      -16.80573       -12.63786        -9.50603
   C      -14.79911       -13.64084       -11.43929
   O      -15.93022       -13.23835       -12.05362
   C      -16.25363       -13.79113       -13.30801
   C      -13.90364       -14.55747       -11.92554
   H       -3.52519        -3.49300        12.33722
   H       -5.39501        -1.47406        12.41336
   H       -9.40577        -0.11962         7.89991
   H       -7.91627         0.43748         8.69453
   H       -9.43869         0.29279         9.62120
   H       -7.35182        -3.50303         8.35234
   H       -3.87108        -7.34035         8.92022
   H       -6.57251        -4.62291         6.87832
   H       -5.59350        -8.92974         4.55174
   H       -2.82880       -11.64089         6.51885
   H       -3.79993       -12.45021         4.24810
   H       -5.72757       -10.49323         2.87867
   H       -3.43350       -14.29482         3.31802
   H       -4.56088       -16.29393        -0.19529
   H       -7.85583       -11.99447        -1.80265
   H       -5.82697       -15.83037        -1.96050
   H       -8.89677       -14.78235        -5.77069
   H      -10.95830       -10.96260        -5.63476
   H      -11.54635       -12.50293        -7.63983
   H       -9.85084       -15.04409        -7.82991
   H      -11.73503       -16.41671       -12.38033
   H      -13.34279       -12.90259        -8.43755
   H      -17.19251       -13.32386       -13.59771
   H      -16.39047       -14.87462       -13.24121
   H      -15.48611       -13.56224       -14.05331
   H      -14.05111       -15.05055       -12.87184
*
