# ORCA input file
# SCF done       -199.751949140563          0.000783309318
! CAM-B3LYP def2-SVP def2/J RIJCOSX Grid4 TightSCF
%maxcore 5000
%tddft
    Mode sTDDFT
    Ethresh 5.0
    maxcore 5000
end

%pal
  nprocs 6
  end
* xyz 0 1
   C        1.70752         3.16051         5.72872
   C        2.02586         1.83921         5.78973
   C        2.29664         1.13113         4.59266
   C        2.63522        -0.19328         4.36548
   C        2.85516        -1.24027         5.40488
   C        1.82287        -2.37496         5.31537
   N        0.48568        -1.85054         5.54420
   C        4.28684        -1.80316         5.34918
   N        4.55335        -2.59774         6.53922
   C        2.78753        -0.34759         2.93771
   C        3.08396        -1.41269         2.16898
   C        3.27000        -1.28896         0.70249
   C        2.93265         0.05071         0.13226
   C        2.61715         1.10608         0.91157
   C        2.53523         0.95949         2.31122
   C        2.22875         1.84843         3.32984
   C        1.89834         3.21981         3.31422
   C        1.64341         3.85428         4.49208
   C        4.73054        -1.49091         0.37325
   C        5.79279        -1.35713         1.21186
   C        6.99637        -1.61602         0.47387
   C        6.55354        -1.88518        -0.88649
   C        5.20943        -1.81543        -0.95941
   F        7.38427        -2.17123        -1.90350
   C        8.28851        -1.67210         0.94931
   C        9.48034        -1.97038         0.23980
   C       10.55101        -1.97061         1.11448
   C       10.03990        -1.65017         2.45010
   C        8.71564        -1.47191         2.33629
   F        7.87739        -1.16809         3.34116
   C       11.88943        -2.25633         0.77738
   C       12.91801        -2.35155         1.66807
   C       14.25014        -2.67846         1.34154
   N       15.19650        -2.85751         2.33432
   C       16.37626        -3.20116         1.75719
   C       17.68976        -3.55678         2.01914
   C       18.28986        -3.78497         0.76828
   N       17.35773        -3.56013        -0.22767
   C       16.17586        -3.21657         0.34820
   C       14.85305        -2.89421         0.08922
   C       19.60140        -4.20209         0.45682
   C       20.54468        -4.54908         1.37859
   C       21.84052        -5.01807         1.08478
   C       22.75435        -5.48219         2.01625
   C       23.92394        -5.92212         1.35077
   C       23.67225        -5.66480        -0.06662
   C       22.44855        -5.13996        -0.23982
   F       24.55699        -5.93066        -1.04154
   C       25.05107        -6.51458         1.89146
   C       26.19895        -7.00586         1.22229
   C       27.05609        -7.58251         2.14127
   C       26.45315        -7.44626         3.46801
   C       25.28088        -6.81309         3.30550
   F       24.41899        -6.49107         4.28472
   C       28.28645        -8.20787         1.83308
   C       29.07568        -8.85686         2.72800
   C       30.31092        -9.52836         2.45301
   C       30.88541       -10.28784         3.45619
   C       32.08411       -10.99224         3.23655
   C       32.83899       -11.83620         4.04768
   C       32.60879       -12.29953         5.45127
   C       32.96895       -11.21344         6.48681
   N       32.11434       -10.04622         6.36586
   C       31.18527       -12.82750         5.68440
   N       30.90734       -13.90707         4.74961
   C       33.97663       -12.25366         3.26319
   C       35.01037       -13.06726         3.55478
   C       36.06976       -13.36088         2.56071
   C       35.91484       -12.68127         1.24399
   C       34.87751       -11.87203         0.96352
   C       33.87851       -11.62876         1.93755
   C       32.72655       -10.87313         1.93059
   C       32.13037       -10.07355         0.92633
   C       30.96265        -9.43477         1.17688
   H        1.49392         3.70962         6.63494
   H        2.06779         1.32810         6.74062
   H        2.73209        -0.76971         6.38744
   H        2.12387        -3.15449         6.03376
   H        1.83214        -2.80949         4.31350
   H        0.42373        -1.44133         6.47091
   H       -0.19866        -2.59693         5.49004
   H        4.98905        -0.96254         5.22197
   H        4.39796        -2.46326         4.48695
   H        4.54511        -2.00369         7.36287
   H        5.47405        -3.01833         6.47607
   H        3.26055        -2.39461         2.58337
   H        2.69934        -2.07531         0.18949
   H        3.00831         0.14673        -0.93975
   H        2.40800         2.07047         0.47030
   H        1.84913         3.74836         2.37327
   H        1.38519         4.90335         4.50290
   H        5.75428        -1.11246         2.25459
   H        4.59348        -1.97283        -1.82365
   H        9.53345        -2.17483        -0.81133
   H       10.62309        -1.56559         3.34585
   H       12.08618        -2.43694        -0.27034
   H       12.71592        -2.19500         2.71943
   H       15.00808        -2.78013         3.31883
   H       18.17347        -3.64382         2.97030
   H       17.53820        -3.67382        -1.21021
   H       14.36491        -2.81486        -0.86053
   H       19.84219        -4.27292        -0.59541
   H       20.28915        -4.49920         2.42815
   H       22.59463        -5.52480         3.07574
   H       21.99987        -4.85232        -1.17012
   H       26.36415        -6.95214         0.16402
   H       26.87830        -7.78340         4.39264
   H       28.57077        -8.16633         0.79024
   H       28.74513        -8.91212         3.75700
   H       30.40448       -10.33447         4.42110
   H       33.28493       -13.14133         5.63125
   H       34.04159       -10.97667         6.37306
   H       32.82039       -11.63135         7.48672
   H       32.32521        -9.55056         5.50581
   H       32.27880        -9.41008         7.13800
   H       30.47116       -11.99614         5.63017
   H       31.13129       -13.24513         6.69450
   H       30.96333       -13.55749         3.79766
   H       29.96855       -14.26244         4.89431
   H       35.10671       -13.54663         4.51969
   H       37.04598       -13.10484         2.99413
   H       36.10869       -14.44814         2.40653
   H       36.68511       -12.87597         0.51271
   H       34.79181       -11.39765        -0.00350
   H       32.61686        -9.98371        -0.03431
   H       30.51283        -8.82316         0.41096
*
