# ORCA input file
# SCF done       -227.955600060199          0.000723303708
! CAM-B3LYP def2-SVP def2/J RIJCOSX Grid4 TightSCF
%maxcore 5000
%tddft
    Mode sTDDFT
    Ethresh 5.0
    maxcore 5000
end

%pal
  nprocs 6
  end
* xyz 0 1
   C        0.23639         2.52581        -1.29139
   C       -0.46718         3.33655        -2.16875
   C       -1.72391         2.97091        -2.63180
   C       -2.31666         1.78511        -2.22603
   C       -1.62315         0.96525        -1.35044
   C       -0.34007         1.33288        -0.88239
   C        0.15818         0.28899         0.00106
   C        1.27861         0.35403         0.78110
   C        2.14486         1.46787         0.82823
   N        2.88570         2.33999         0.91329
   C        1.69797        -0.64942         1.68126
   N        2.09111        -1.41976         2.43629
   C       -0.78181        -0.82847        -0.10281
   C       -1.98903        -0.30374        -0.74282
   C       -3.25872        -0.78259        -0.58130
   C       -3.59227        -1.86887         0.25700
   N       -3.92918        -2.69537         0.97798
   C       -4.39777        -0.18651        -1.16275
   N       -5.34730         0.25324        -1.63306
   C       -0.49010        -2.11414         0.21566
   C       -1.20279        -3.30256        -0.18126
   C       -1.22012        -4.39848         0.69483
   C       -1.88339        -5.54578         0.33414
   C       -2.54039        -5.61479        -0.90803
   C       -2.48864        -4.55357        -1.80261
   C       -1.82009        -3.40656        -1.43558
   C       -3.18077        -6.90427        -1.02131
   C       -2.91986        -7.63804         0.14932
   C       -2.09769        -6.82021         1.12466
   C       -0.79127        -7.59121         1.40779
   C        0.20216        -6.91959         2.34719
   C       -2.89519        -6.44241         2.39189
   C       -3.31880        -7.60587         3.27810
   C       -3.34066        -8.94251         0.25160
   C       -4.07478        -9.51729        -0.79434
   C       -4.36535        -8.75917        -1.93467
   C       -3.91582        -7.46131        -2.05842
   C       -4.48288       -10.91266        -0.71088
   C       -5.70042       -11.38149        -1.23752
   C       -6.03533       -12.78853        -1.26869
   N       -7.23244       -13.17502        -1.75033
   C       -8.06349       -12.28068        -2.21048
   C       -7.72640       -10.88164        -2.18800
   N       -6.58584       -10.47769        -1.70024
   C       -8.64883        -9.92545        -2.68272
   N       -9.41417        -9.18612        -3.10644
   C       -9.31910       -12.69696        -2.72031
   N      -10.33482       -12.99619        -3.15702
   C       -5.16060       -13.77803        -0.78241
   C       -3.98659       -13.30172        -0.17486
   C       -3.65495       -11.89187        -0.13643
   N       -2.46521       -11.68567         0.44316
   S       -1.84378       -13.09035         0.88617
   N       -3.01938       -14.04613         0.37656
   C       -5.42540       -15.20169        -0.93022
   C       -5.02461       -16.09628         0.07157
   C       -5.24507       -17.44045        -0.09941
   C       -5.86532       -17.92294        -1.26539
   C       -6.26951       -17.04392        -2.25984
   C       -6.04463       -15.69365        -2.08614
   C       -5.93823       -19.36444        -1.18289
   C       -5.36052       -19.77295         0.03313
   C       -4.89185       -18.57821         0.82793
   C       -3.37648       -18.63244         1.09750
   C       -2.54976       -18.71753        -0.17990
   C       -5.65124       -18.46722         2.16450
   C       -7.16300       -18.39848         1.98746
   C       -5.27270       -21.10534         0.34912
   C       -5.81239       -22.05754        -0.52958
   C       -6.37084       -21.63769        -1.74572
   C       -6.42933       -20.30226        -2.08152
   C       -5.70780       -23.45406        -0.18870
   C       -6.56876       -24.45292        -0.50834
   C       -6.23920       -25.87912        -0.47829
   C       -5.22974       -26.47854         0.22161
   C       -4.34370       -25.81474         1.09760
   N       -3.59828       -25.34030         1.83052
   C       -4.96861       -27.86593         0.19963
   N       -4.70386       -28.98212         0.22370
   C       -7.20705       -26.54715        -1.33635
   C       -8.20114       -25.61690        -1.71908
   C       -9.24006       -25.99611        -2.55374
   C       -9.28159       -27.30648        -3.00435
   C       -8.31019       -28.22305        -2.62519
   C       -7.26634       -27.85624        -1.78971
   C       -7.91206       -24.34464        -1.07886
   C       -8.81225       -23.34527        -0.83603
   C      -10.12427       -23.32973        -1.35466
   N      -11.19278       -23.26266        -1.76718
   C       -8.56999       -22.26224         0.03518
   N       -8.45815       -21.40477         0.78931
   H        1.21351         2.82195        -0.94658
   H       -0.02639         4.26491        -2.49824
   H       -2.24829         3.61652        -3.31948
   H       -3.28977         1.50744        -2.59773
   H        0.41025        -2.29691         0.78793
   H       -0.75053        -4.29452         1.66027
   H       -2.96621        -4.62298        -2.76809
   H       -1.74373        -2.58434        -2.13326
   H       -0.30221        -7.77102         0.44634
   H       -1.06195        -8.56586         1.81628
   H        0.60952        -6.01376         1.90808
   H        1.03108        -7.59902         2.53539
   H       -0.25467        -6.67535         3.30211
   H       -3.78618        -5.89853         2.06896
   H       -2.29078        -5.74748         2.97626
   H       -4.02134        -8.25387         2.76167
   H       -3.81265        -7.21661         4.16591
   H       -2.46334        -8.19461         3.59918
   H       -3.11774        -9.53787         1.12106
   H       -4.91461        -9.21109        -2.74494
   H       -4.11945        -6.89728        -2.95583
   H       -4.55776       -15.71938         0.96711
   H       -6.74147       -17.40562        -3.16062
   H       -6.32717       -15.00560        -2.86663
   H       -3.16417       -19.49878         1.72697
   H       -3.09000       -17.73656         1.65140
   H       -2.81294       -19.60462        -0.75218
   H       -1.49116       -18.76796         0.06369
   H       -2.71772       -17.84262        -0.80391
   H       -5.30244       -17.57163         2.68363
   H       -5.39796       -19.33182         2.78105
   H       -7.44187       -17.54194         1.37727
   H       -7.64393       -18.29894         2.95759
   H       -7.53980       -19.29978         1.51165
   H       -4.83149       -21.43494         1.27797
   H       -6.72242       -22.37992        -2.44872
   H       -6.84766       -19.99488        -3.02789
   H       -4.79881       -23.72341         0.33352
   H       -9.99532       -25.29042        -2.86000
   H      -10.08060       -27.61551        -3.66066
   H       -8.36392       -29.23805        -2.98794
   H       -6.51804       -28.57961        -1.51041
*
