# ORCA input file
# SCF done       -217.546367178796          0.000835342128
! CAM-B3LYP def2-SVP def2/J RIJCOSX Grid4 TightSCF
%maxcore 5000
%tddft
    Mode sTDDFT
    Ethresh 5.0
    maxcore 5000
end

%pal
  nprocs 6
  end
* xyz 0 1
   C      -20.44157        -6.41727        -6.18206
   C      -20.54971        -6.97281        -4.91559
   C      -19.93267        -8.17611        -4.60492
   C      -19.19644        -8.86547        -5.55684
   C      -19.08242        -8.32020        -6.82417
   C      -19.69957        -7.08883        -7.14081
   C      -19.39312        -6.74827        -8.52554
   C      -19.90345        -5.68432        -9.22197
   C      -20.82265        -4.75663        -8.68844
   N      -21.57043        -3.96670        -8.32137
   C      -19.62296        -5.38119       -10.57035
   N      -19.44487        -5.07471       -11.66303
   C      -18.43870        -7.74143        -8.99879
   C      -18.42691        -8.82120        -8.02136
   C      -18.14646       -10.13634        -8.28308
   C      -17.84720       -10.62369        -9.57282
   N      -17.65895       -11.06207       -10.61673
   C      -18.22350       -11.16345        -7.32188
   N      -18.24985       -12.03460        -6.57497
   C      -17.63807        -7.59336       -10.10033
   C      -16.41741        -8.23560       -10.38921
   S      -15.39920        -9.00041        -9.19172
   C      -14.18932        -9.36670       -10.37794
   C      -14.56491        -8.90075       -11.62941
   C      -15.78956        -8.25299       -11.62775
   C      -13.00941       -10.06274       -10.02201
   C      -11.98965       -10.49730       -10.85035
   C      -10.97970       -11.17307       -10.17517
   C      -11.19479       -11.26784        -8.81257
   S      -12.69212       -10.50534        -8.36721
   C      -10.36934       -11.87574        -7.83496
   S       -8.90652       -12.70860        -8.27124
   C       -8.56643       -13.08821        -6.60495
   C       -9.55689       -12.58043        -5.78085
   C      -10.56193       -11.90898        -6.46594
   C       -7.40226       -13.82649        -6.27784
   C       -6.99603       -14.11233        -5.01490
   C       -5.83183       -14.86189        -4.73698
   S       -5.33652       -15.11583        -3.03556
   C       -4.00348       -16.00920        -3.63039
   C       -4.03173       -16.05297        -5.03223
   N       -5.03801       -15.41617        -5.61369
   C       -2.87581       -16.84120        -5.56186
   C       -2.18706       -17.23562        -4.28821
   C       -2.87507       -16.72566        -3.18179
   S       -2.11919       -17.13302        -1.69894
   C       -0.86410       -18.00759        -2.56161
   C       -1.05766       -17.96039        -3.93505
   C        0.16561       -18.62557        -1.80823
   C        1.15040       -19.40052        -2.32553
   C        2.19477       -19.99101        -1.56713
   S        3.33322       -21.04612        -2.35672
   C        4.21362       -21.29361        -0.87868
   C        3.63311       -20.58435         0.15724
   C        2.50743       -19.86279        -0.22549
   C        5.36712       -22.11888        -0.83086
   C        6.24255       -22.29254         0.22601
   C        7.28711       -23.16535        -0.05903
   C        7.23512       -23.68931        -1.33639
   S        5.85407       -23.07190        -2.20067
   C        8.12808       -24.60288        -1.94463
   S        9.56609       -25.13470        -1.13344
   C       10.01325       -26.14605        -2.48600
   C        9.06653       -26.05054        -3.49574
   C        8.02273       -25.18919        -3.19678
   C       11.22409       -26.86492        -2.44615
   C       11.62607       -27.78170        -3.37223
   C       12.84648       -28.49068        -3.32627
   C       14.02432       -28.10944        -2.73378
   C       15.07942       -29.02903        -2.33032
   C       15.22782       -30.34280        -2.69245
   C       14.39134       -31.05826        -3.57414
   N       13.76633       -31.71313        -4.28128
   C       16.28254       -31.17022        -2.25258
   N       17.10921       -31.90234        -1.93802
   C       15.96286       -28.29276        -1.43402
   C       15.55541       -26.94047        -1.40165
   C       16.21341       -26.02279        -0.59979
   C       17.28460       -26.45960         0.16486
   C       17.69478       -27.78431         0.12520
   C       17.04076       -28.71295        -0.67082
   C       14.43898       -26.77509        -2.32062
   C       14.06080       -25.58532        -2.88694
   C       14.57844       -24.33159        -2.50377
   N       14.94741       -23.28017        -2.22691
   C       13.16979       -25.45858        -3.97203
   N       12.49519       -25.27816        -4.88326
   H      -20.92554        -5.48014        -6.40243
   H      -21.12197        -6.45580        -4.16050
   H      -20.02547        -8.58338        -3.60972
   H      -18.71574        -9.79730        -5.30607
   H      -17.91425        -6.83518       -10.82210
   H      -13.95603        -9.02828       -12.50521
   H      -16.24568        -7.82517       -12.50273
   H      -11.98982       -10.33259       -11.91214
   H      -10.10763       -11.58804       -10.64858
   H       -9.54905       -12.70329        -4.71344
   H      -11.41455       -11.45083        -5.99593
   H       -6.79514       -14.18058        -7.09882
   H       -7.55377       -13.76448        -4.15813
   H       -2.23640       -16.23677        -6.20775
   H       -3.20851       -17.70558        -6.13933
   H       -0.39218       -18.42967        -4.63588
   H        0.13286       -18.45157        -0.74188
   H        1.16725       -19.60416        -3.38673
   H        4.01716       -20.59968         1.16103
   H        1.93812       -19.25501         0.45373
   H        6.12685       -21.79018         1.16867
   H        8.06800       -23.42107         0.63534
   H        9.15559       -26.57848        -4.42702
   H        7.19999       -24.97927        -3.85733
   H       11.85456       -26.67831        -1.58502
   H       10.93440       -28.07376        -4.14924
   H       12.81749       -29.47678        -3.77085
   H       15.89899       -24.99271        -0.55547
   H       17.80364       -25.75722         0.79901
   H       18.53365       -28.10198         0.72543
   H       17.37092       -29.73839        -0.68320
*
