# ORCA input file
# SCF done       -220.449118865402          0.000774118787
! CAM-B3LYP def2-SVP def2/J RIJCOSX Grid4 TightSCF
%maxcore 5000
%tddft
    Mode sTDDFT
    Ethresh 5.0
    maxcore 5000
end

%pal
  nprocs 6
  end
* xyz 0 1
   C        1.92423       -14.99162         1.25287
   C        1.88552       -16.00104         0.30099
   C        1.49056       -15.74134        -1.00233
   C        1.13229       -14.45967        -1.39611
   C        1.16683       -13.44668        -0.45475
   C        1.55674       -13.71017         0.87752
   C        1.46186       -12.47411         1.64803
   C        1.79187       -12.33284         2.97517
   C        2.33197       -13.36384         3.77001
   N        2.78012       -14.14877         4.47889
   C        1.66369       -11.15660         3.73873
   N        1.57700       -10.24535         4.43544
   C        0.90479       -11.46916         0.76373
   C        0.88949       -12.02276        -0.57292
   C        0.92098       -11.29776        -1.74026
   C        1.02387        -9.89279        -1.76865
   N        1.17105        -8.75444        -1.82149
   C        0.97124       -11.87302        -3.02331
   N        0.99411       -12.28765        -4.09408
   C        0.43733       -10.24184         1.18955
   C       -0.55564        -9.41402         0.64022
   C       -0.75450        -8.14538         1.16843
   C       -1.74276        -7.26124         0.78236
   C       -2.63387        -7.56600        -0.34751
   C       -2.65939        -8.75494        -0.98536
   S       -1.64463       -10.07669        -0.58514
   C       -3.40408        -6.38904        -0.54989
   C       -3.04696        -5.42575         0.40245
   C       -3.81191        -4.24383         0.27690
   C       -4.69475        -4.32926        -0.74899
   S       -4.64453        -5.84171        -1.59669
   C       -2.03024        -5.95644         1.25613
   C       -1.47658        -5.24873         2.35680
   C       -0.89010        -5.81385         3.43793
   C       -0.29549        -5.11862         4.54913
   C       -0.12207        -3.73579         4.58501
   C        0.47892        -3.08888         5.66350
   C        0.83600        -3.84834         6.80195
   C        0.69344        -5.23851         6.75330
   C        0.15845        -5.86158         5.65266
   N        1.27114        -3.24916         7.98305
   C        2.29544        -3.85717         8.72320
   C        3.37845        -4.43250         8.05921
   C        4.39575        -5.02921         8.77812
   C        4.35385        -5.05297        10.16260
   C        3.28023        -4.48090        10.82555
   C        2.25289        -3.88969        10.11563
   C        0.62274        -2.11080         8.47700
   C       -0.74120        -1.92525         8.25748
   C       -1.36845        -0.78120         8.70978
   C       -0.65385         0.18866         9.39410
   C        0.69754         0.00058         9.63062
   C        1.33604        -1.13654         9.17525
   C        0.73310        -1.67260         5.51360
   C        1.74590        -0.97628         6.06738
   C        1.97291         0.42598         5.87492
   C        1.36240         1.18447         4.90391
   C        1.55936         2.54722         4.71019
   C        2.57132         3.28237         5.46824
   C        3.28436         2.74221         6.48538
   S        3.10804         1.12049         7.00813
   C        2.63503         4.57293         4.86919
   C        1.74553         4.64076         3.79771
   C        1.75934         5.90283         3.16862
   C        2.64805         6.74315         3.76289
   S        3.49134         6.04456         5.10168
   C        1.02612         3.39414         3.70451
   C        0.01351         3.11866         2.78004
   C       -0.95084         2.14446         2.94745
   C       -1.80504         1.61772         1.98587
   C       -2.04667         1.98710         0.66384
   C       -2.36452         1.01954        -0.35842
   C       -2.39648        -0.35219        -0.21675
   C       -2.04166        -1.07151         0.93706
   N       -1.72963        -1.75467         1.81073
   C       -2.76863        -1.24037        -1.24363
   N       -3.08985        -2.02804        -2.01646
   C       -2.49939         1.74135        -1.61735
   C       -2.25826         3.11149        -1.37326
   C       -2.26892         4.02250        -2.41411
   C       -2.52918         3.56174        -3.69780
   C       -2.78159         2.22020        -3.93591
   C       -2.76743         1.29600        -2.90033
   C       -2.06623         3.29535         0.06200
   C       -2.15174         4.50468         0.71656
   C       -2.17455         5.75556         0.07251
   N       -2.15476         6.81125        -0.38093
   C       -2.29672         4.64326         2.10881
   N       -2.44727         4.80998         3.23559
   H        2.23338       -15.21454         2.26075
   H        2.16529       -17.00415         0.58508
   H        1.46025       -16.54467        -1.72266
   H        0.82286       -14.26773        -2.41085
   H        0.81142        -9.89532         2.14376
   H       -0.03581        -7.82880         1.91106
   H       -3.34111        -8.96912        -1.79324
   H       -3.70983        -3.38175         0.90963
   H       -5.38895        -3.58454        -1.08456
   H       -1.59824        -4.17467         2.30987
   H       -0.89143        -6.89120         3.53213
   H       -0.42026        -3.13883         3.73701
   H        0.98973        -5.82161         7.61277
   H        0.05692        -6.93671         5.64785
   H        3.41351        -4.40800         6.97949
   H        5.22899        -5.47216         8.25355
   H        5.15187        -5.51683        10.72154
   H        3.23658        -4.50326        11.90422
   H        1.40965        -3.45664        10.63326
   H       -1.30423        -2.68327         7.73319
   H       -2.42557        -0.64966         8.53355
   H       -1.14801         1.08172         9.74439
   H        1.26345         0.74872        10.16578
   H        2.39297        -1.27216         9.35386
   H        0.06079        -1.17481         4.82777
   H        2.45371        -1.47054         6.71634
   H        0.72682         0.66052         4.20745
   H        4.02073         3.30335         7.03851
   H        1.14814         6.18301         2.33013
   H        2.86845         7.75848         3.49737
   H        0.02295         3.71654         1.87810
   H       -1.01429         1.68234         3.92200
   H       -2.28448         0.69227         2.28454
   H       -2.07041         5.06852        -2.24616
   H       -2.53467         4.26188        -4.51926
   H       -2.98923         1.88434        -4.94045
   H       -2.96548         0.25630        -3.10329
*
