# ORCA input file
# SCF done       -173.468497165138          0.000940667603
! CAM-B3LYP def2-SVP def2/J RIJCOSX Grid4 TightSCF
%maxcore 5000
%tddft
    Mode sTDDFT
    Ethresh 5.0
    maxcore 5000
end

%pal
  nprocs 6
  end
* xyz 0 1
   C       -2.02989         2.65952        -5.36978
   C       -0.86999         3.22557        -4.86108
   C       -0.34020         2.80763        -3.64879
   C       -0.95835         1.81265        -2.90605
   C       -2.11428         1.23735        -3.40613
   C       -2.65358         1.65821        -4.64297
   C       -3.85414         0.87907        -4.92212
   C       -4.74036         1.10646        -5.94165
   C       -4.59495         2.12905        -6.90227
   N       -4.53682         2.93775        -7.71506
   C       -5.94577         0.40119        -6.13974
   N       -6.95029        -0.11740        -6.34200
   C       -3.92290        -0.16078        -3.90408
   C       -2.98012         0.20509        -2.85798
   C       -3.07017        -0.14740        -1.53698
   C       -4.12078        -0.92618        -1.01014
   N       -4.98559        -1.50792        -0.52896
   C       -2.18339         0.30695        -0.54066
   N       -1.47799         0.63390         0.30401
   C       -4.65428        -1.31264        -4.02220
   C       -4.45560        -2.54281        -3.36350
   N       -5.39919        -3.53162        -3.44645
   C       -4.95233        -4.66347        -2.85542
   C       -3.66165        -4.40239        -2.37835
   C       -3.35049        -3.09556        -2.69787
   C       -5.69668        -5.87400        -2.69583
   S       -5.45835        -6.70667        -1.19717
   C       -6.62185        -7.92355        -1.57289
   C       -7.22779        -7.65515        -2.80452
   C       -6.65012        -6.52726        -3.48469
   C       -7.05952        -6.28988        -4.82989
   C       -6.33146        -5.38709        -5.77899
   F       -5.01222        -5.29766        -5.54216
   F       -6.44337        -5.80370        -7.04827
   F       -6.79947        -4.11517        -5.77962
   C       -8.13029        -6.98143        -5.33770
   C       -8.83646        -7.92393        -4.58241
   C       -8.39304        -8.29339        -3.33443
   O       -8.99382        -9.20007        -2.54271
   C      -10.19383        -9.81028        -2.96845
   C       -6.76049        -9.03487        -0.68848
   C       -6.97269       -10.30313        -1.10547
   C       -7.15020       -11.42712        -0.25717
   N       -7.25882       -12.68277        -0.75874
   C       -7.52042       -13.58363         0.23622
   C       -7.53639       -12.85392         1.43862
   C       -7.29380       -11.52979         1.13545
   C       -7.58621       -14.96371        -0.03562
   C       -8.09018       -15.95649         0.76465
   C       -7.72353       -17.36154         0.68145
   C       -7.07541       -17.99483        -0.34815
   C       -6.68894       -17.38625        -1.55893
   N       -6.35732       -16.94588        -2.56726
   C       -6.74102       -19.36504        -0.35221
   N       -6.43720       -20.46970        -0.42481
   C       -8.16871       -17.98499         1.92217
   C       -8.90689       -17.03964         2.67073
   C       -9.43081       -17.37125         3.90867
   C       -9.21520       -18.65170         4.39678
   C       -8.50042       -19.58457         3.65953
   C       -7.97171       -19.26388         2.41759
   C       -8.99334       -15.81243         1.89507
   C       -9.95191       -14.84158         2.03331
   C      -10.86362       -14.78720         3.10630
   N      -11.61414       -14.68962         3.96944
   C      -10.20492       -13.85490         1.05904
   N      -10.49388       -13.07450         0.26767
   H       -2.42405         2.99442        -6.31511
   H       -0.37220         4.00183        -5.42197
   H        0.56659         3.25986        -3.27716
   H       -0.53524         1.49063        -1.96814
   H       -5.42627        -1.33586        -4.78128
   H       -6.32220        -3.38449        -3.82157
   H       -3.03015        -5.11251        -1.88278
   H       -2.41299        -2.60833        -2.51721
   H       -8.44767        -6.79641        -6.35219
   H       -9.71230        -8.37438        -5.01724
   H      -10.04420       -10.39431        -3.88132
   H      -10.98114        -9.06997        -3.13329
   H      -10.48275       -10.47421        -2.15512
   H       -6.59181        -8.83635         0.36060
   H       -7.01471       -10.50639        -2.16625
   H       -7.22816       -12.91577        -1.73879
   H       -7.66879       -13.26635         2.41978
   H       -7.23740       -10.71871         1.83280
   H       -7.10599       -15.26310        -0.95817
   H       -9.98393       -16.65232         4.49135
   H       -9.60985       -18.92314         5.36388
   H       -8.34850       -20.57649         4.05681
   H       -7.41693       -20.00128         1.86125
*
