# ORCA input file
# SCF done       -198.052412610545          0.000548199872
! CAM-B3LYP def2-SVP def2/J RIJCOSX Grid4 TightSCF
%maxcore 5000
%tddft
    Mode sTDDFT
    Ethresh 5.0
    maxcore 5000
end

%pal
  nprocs 6
  end
* xyz 0 1
   C       -9.02218        -1.00206         2.13808
   C       -7.82640        -0.57559         1.60592
   C       -7.69178         0.11617         0.39436
   N       -7.48186         0.57163        -0.64065
   C       -6.58739        -0.79769         2.23875
   N       -5.56398        -0.93302         2.74122
   C      -10.33829        -0.49566         1.76012
   C      -11.23462        -0.74006         2.81803
   C      -12.54060        -0.29914         2.76795
   C      -12.96854         0.37189         1.62687
   C      -12.09413         0.57535         0.55373
   C      -10.76884         0.15702         0.62092
  Cl      -12.64924         1.33841        -0.87641
  Cl      -14.58583         0.93668         1.53049
   C      -10.55041        -1.52623         3.86683
   O      -10.99426        -1.90649         4.92480
   C       -9.19468        -1.80999         3.31675
   C       -8.44375        -2.79113         3.90733
   C       -7.31788        -3.50823         3.44539
   C       -6.86441        -3.55563         2.13728
   C       -5.73973        -4.23781         1.70716
   C       -4.95274        -5.06056         2.62860
   C       -5.23423        -5.21459         3.94267
   S       -6.53583        -4.43351         4.72804
   C       -3.90523        -5.60622         1.84359
   C       -3.99112        -5.13826         0.52671
   C       -2.96420        -5.68644        -0.27908
   C       -2.15234        -6.51376         0.42837
   S       -2.58725        -6.67374         2.09527
   C       -5.12792        -4.26029         0.42267
   C       -5.53172        -3.48414        -0.68081
   C       -4.80281        -3.32792        -1.82744
   C       -5.13623        -2.53870        -2.93984
   S       -3.98355        -2.41292        -4.26192
   C       -4.96316        -1.32536        -5.20441
   C       -6.17690        -1.09829        -4.53052
   C       -6.24788        -1.76390        -3.26601
   N       -7.45002        -1.48094        -2.70662
   C       -8.12788        -0.64921        -3.56206
   N       -9.38631        -0.15719        -3.21968
   O       -9.86628        -0.55725        -2.16593
   O       -9.92802         0.63285        -3.97281
   C       -7.39529        -0.41292        -4.70630
   C       -4.50923        -0.75123        -6.41014
   C       -5.19342         0.30023        -6.99477
   C       -4.83668         0.93700        -8.16895
   C       -3.70318         0.46356        -8.96996
   C       -2.86508        -0.52139        -8.57332
   S       -3.02530        -1.38968        -7.10039
   C       -3.72755         1.24579       -10.15793
   C       -4.79916         2.14127       -10.11193
   C       -4.87211         2.94417       -11.27113
   C       -3.87987         2.64233       -12.14872
   S       -2.81897         1.38415       -11.60880
   C       -5.49045         1.99282        -8.85882
   C       -6.61339         2.74573        -8.46686
   C       -7.08742         2.87240        -7.18682
   C       -8.29972         3.50539        -6.87283
   C       -8.82695         3.57059        -5.60318
   C      -10.07303         4.19038        -5.20999
   C      -10.97946         4.82392        -6.02271
   C      -12.17730         5.41291        -5.56709
   N      -13.16407         5.91945        -5.27031
   C      -10.85891         4.98819        -7.41758
   N      -10.83880         5.16735        -8.55245
   C      -10.20874         4.03300        -3.76234
   C       -9.09762         3.32454        -3.27667
   C       -8.19934         2.98572        -4.39797
   O       -7.16554         2.34835        -4.32158
   C       -8.94321         3.03562        -1.93605
   C       -9.92147         3.47526        -1.05526
   C      -11.03271         4.18003        -1.52597
   C      -11.18813         4.45809        -2.87994
  Cl      -12.23047         4.72228        -0.42088
  Cl       -9.75375         3.16390         0.62953
   H      -13.21380        -0.47323         3.59235
   H      -10.13020         0.30313        -0.23390
   H       -8.82005        -3.09789         4.87970
   H       -7.46701        -3.04479         1.39985
   H       -4.63523        -5.83256         4.59292
   H       -2.82210        -5.51037        -1.32927
   H       -1.30132        -7.05815         0.06825
   H       -6.46095        -2.94135        -0.57535
   H       -3.84740        -3.82332        -1.89801
   H       -7.79119        -1.70653        -1.78703
   H       -7.75473         0.15976        -5.53512
   H       -6.06611         0.63798        -6.46942
   H       -2.01939        -0.83567        -9.16439
   H       -5.61363         3.70088       -11.45108
   H       -3.69213         3.08775       -13.10607
   H       -7.13285         3.27370        -9.25894
   H       -6.50957         2.49372        -6.36044
   H       -8.85823         3.93747        -7.69284
   H       -8.08935         2.47620        -1.58355
   H      -12.06206         4.99769        -3.20603
*
