# ORCA input file
# SCF done       -202.997619112121          0.000635100088
! CAM-B3LYP def2-SVP def2/J RIJCOSX Grid4 TightSCF
%maxcore 5000
%tddft
    Mode sTDDFT
    Ethresh 5.0
    maxcore 5000
end

%pal
  nprocs 6
  end
* xyz 0 1
   C       -2.12908       -11.64612        -3.68011
   C       -0.95005       -10.94750        -3.61861
   C        0.31961       -11.55246        -3.53476
   N        1.37443       -11.99530        -3.44257
   C       -0.88577        -9.54356        -3.73384
   N       -0.79948        -8.40684        -3.87261
   C       -2.25047       -13.08676        -3.88702
   C       -3.52791       -13.36281        -4.40945
   C       -3.91053       -14.64590        -4.74229
   C       -3.00246       -15.67860        -4.53835
   C       -1.73443       -15.41181        -4.00883
   C       -1.34746       -14.11562        -3.68459
  Cl       -0.62992       -16.69983        -3.75059
  Cl       -3.44246       -17.28913        -4.93785
   C       -4.30474       -12.10652        -4.50580
   O       -5.40883       -11.94466        -4.96609
   C       -3.44596       -11.07727        -3.85609
   C       -3.99061        -9.88276        -3.48795
   C       -3.52947        -8.94129        -2.52974
   C       -3.95418        -7.62827        -2.55921
   C       -3.52887        -6.63957        -1.68289
   C       -2.59714        -6.93812        -0.59458
   C       -2.10590        -8.16949        -0.32987
   S       -2.48150        -9.55670        -1.25535
   C       -2.37421        -5.69908         0.06285
   C       -3.10700        -4.68282        -0.56164
   C       -2.91671        -3.43955         0.08642
   C       -2.06919        -3.54537         1.14274
   S       -1.46542        -5.14472         1.40597
   C       -3.83881        -5.25642        -1.66218
   C       -4.70653        -4.61346        -2.56667
   C       -4.91824        -3.26999        -2.63740
   C       -5.79953        -2.64356        -3.53886
   S       -6.81129        -3.50334        -4.65505
   C       -7.49693        -2.03197        -5.29601
   C       -6.94512        -0.92353        -4.64865
   C       -6.00473        -1.26822        -3.67198
   S       -5.07364        -0.17708        -2.65284
   C       -5.58601         1.48563        -2.93628
   O       -5.02722         2.34208        -2.30776
   C       -6.67218         1.86343        -3.91535
   O       -7.02340         3.00706        -4.00416
   S       -7.45330         0.72041        -5.01726
   C       -8.47447        -2.16783        -6.30888
   C       -9.05234        -1.16813        -7.02470
   C      -10.06510        -1.31828        -8.01335
   C      -10.69674        -2.49826        -8.35088
   C      -11.70123        -2.61371        -9.30275
   C      -12.18546        -1.45509       -10.05323
   C      -11.71048        -0.19743        -9.89448
   S      -10.47514         0.20698        -8.78321
   C      -13.20098        -1.95572       -10.91096
   C      -13.35763        -3.33263       -10.72398
   C      -14.36914        -3.85806       -11.56076
   C      -14.93177        -2.89251       -12.33393
   S      -14.27048        -1.31300       -12.08956
   C      -12.41993        -3.76690        -9.71525
   C      -12.21939        -5.05828        -9.20819
   C      -12.89614        -6.18479        -9.59788
   C      -12.63177        -7.43914        -9.03787
   C      -13.27332        -8.60455        -9.39467
   C      -13.03688        -9.92138        -8.85173
   C      -12.16081       -10.26682        -7.85143
   C      -11.99124       -11.58069        -7.36836
   N      -11.80954       -12.62407        -6.92457
   C      -11.31600        -9.37824        -7.15650
   N      -10.60114        -8.72101        -6.54163
   C      -13.91879       -10.85364        -9.55592
   C      -14.68584       -10.13502       -10.48843
   C      -14.32408        -8.70102       -10.42675
   O      -14.80920        -7.81222       -11.09942
   C      -15.61123       -10.75313       -11.30281
   C      -15.77659       -12.12788       -11.18676
   C      -15.01698       -12.85202       -10.26340
   C      -14.08567       -12.22357        -9.44296
  Cl      -15.22831       -14.55228       -10.13074
  Cl      -16.91818       -12.93639       -12.18428
   H       -4.88965       -14.84047        -5.15058
   H       -0.36504       -13.94238        -3.27598
   H       -4.95033        -9.65983        -3.94464
   H       -4.62556        -7.36118        -3.36407
   H       -1.43463        -8.36408         0.49165
   H       -3.37325        -2.50658        -0.18704
   H       -1.75058        -2.76385         1.80444
   H       -5.23798        -5.24336        -3.26912
   H       -4.37761        -2.60235        -1.98527
   H       -8.75141        -3.19414        -6.50818
   H       -8.73120        -0.15061        -6.86131
   H      -10.38801        -3.38838        -7.82281
   H      -12.08483         0.64019       -10.46141
   H      -14.68332        -4.88414       -11.60831
   H      -15.71741        -3.00876       -13.05461
   H      -11.46151        -5.17003        -8.44164
   H      -13.65566        -6.12397       -10.35684
   H      -11.86497        -7.48502        -8.27547
   H      -16.18972       -10.18162       -12.01132
   H      -13.51905       -12.81672        -8.74433
*
