# ORCA input file
# SCF done       -214.987847546363          0.000761353865
! CAM-B3LYP def2-SVP def2/J RIJCOSX Grid4 TightSCF
%maxcore 5000
%tddft
    Mode sTDDFT
    Ethresh 5.0
    maxcore 5000
end

%pal
  nprocs 6
  end
* xyz 0 1
   C        2.53148        -2.71527        -0.24647
   C        1.67607        -3.13485         0.73707
   C        2.09523        -3.53627         2.02410
   N        2.37893        -3.87971         3.08125
   C        0.27071        -3.13664         0.62511
   N       -0.87678        -3.13366         0.61266
   C        3.96293        -2.47529        -0.06276
   C        4.42055        -1.62686        -1.08793
   C        5.73161        -1.19880        -1.14393
   C        6.61079        -1.63655        -0.16111
   C        6.16683        -2.49500         0.85272
   C        4.84263        -2.91681         0.91095
  Cl        7.26825        -3.04173         2.04893
  Cl        8.24837        -1.12498        -0.19432
   C        3.30945        -1.33363        -2.01594
   O        3.31102        -0.60165        -2.97634
   C        2.17640        -2.18380        -1.54607
   C        1.11296        -2.36986        -2.37786
   C        0.10528        -3.36180        -2.35696
   C        0.12508        -4.60331        -1.75881
   C       -1.10281        -5.27299        -2.03949
   C       -1.86441        -4.34601        -2.87884
   C       -1.15850        -3.22494        -3.08837
   F       -3.08264        -4.62244        -3.35295
   C       -1.51544        -6.50352        -1.58246
   C       -2.75329        -7.15971        -1.80992
   C       -2.75575        -8.37536        -1.14271
   C       -1.46562        -8.51894        -0.45433
   C       -0.75201        -7.41583        -0.71836
   F        0.48151        -7.14649        -0.28301
   C       -3.82167        -9.29064        -1.13775
   C       -3.80089       -10.49542        -0.48674
   C       -4.85619       -11.43122        -0.45744
   C       -4.68341       -12.65717         0.25002
   C       -5.70818       -13.66245         0.33253
   N       -5.47141       -14.77731         1.03849
   C       -4.31542       -14.94671         1.63046
   C       -3.29252       -13.95216         1.53320
   N       -3.50329       -12.84982         0.85691
   C       -2.03937       -14.14644         2.16786
   N       -1.03835       -14.33202         2.69185
   C       -4.08914       -16.13588         2.36999
   N       -3.87400       -17.08749         2.96935
   C       -6.98491       -13.49583        -0.28066
   C       -7.15609       -12.27095        -0.98007
   C       -6.11974       -11.26914        -1.07683
   N       -6.51527       -10.22181        -1.80086
   S       -8.01604       -10.46363        -2.31271
   N       -8.24842       -11.89955        -1.64885
   C       -8.02663       -14.45659        -0.20100
   C       -9.35558       -14.23729        -0.53363
   C      -10.10042       -15.42422        -0.30292
   C       -9.11916       -16.40476         0.17418
   C       -7.90132       -15.84873         0.25071
   F       -9.43526       -17.66500         0.47996
   C      -11.45516       -15.61939        -0.45479
   C      -12.20947       -16.79922        -0.20221
   C      -13.54604       -16.54331        -0.44630
   C      -13.67324       -15.14704        -0.88373
   C      -12.44013       -14.62106        -0.88929
   F      -12.11337       -13.36993        -1.22766
   C      -14.60020       -17.46589        -0.28586
   C      -15.92251       -17.17341        -0.46785
   C      -16.93134       -18.13754        -0.27341
   C      -18.27433       -17.89389        -0.39216
   C      -19.35339       -18.84368        -0.19735
   C      -19.23944       -20.18622         0.05305
   C      -20.33867       -21.05623         0.22147
   N      -21.18480       -21.81774         0.36597
   C      -18.02861       -20.90269         0.16645
   N      -17.09229       -21.55900         0.27204
   C      -20.61266       -18.11474        -0.33773
   C      -20.33192       -16.77170        -0.64381
   C      -18.86980       -16.57027        -0.70921
   O      -18.29680       -15.53370        -0.96553
   C      -21.33375       -15.84128        -0.83157
   C      -22.65289       -16.25892        -0.70878
   C      -22.94288       -17.59435        -0.40266
   C      -21.92950       -18.52847        -0.21646
  Cl      -24.57657       -18.09785        -0.25017
  Cl      -23.92871       -15.13311        -0.93077
   H        6.06270        -0.54062        -1.93157
   H        4.53593        -3.58210         1.70154
   H        1.07967        -1.68232        -3.21908
   H        0.94026        -5.03256        -1.21025
   H       -1.44897        -2.36035        -3.65199
   H       -3.55872        -6.77074        -2.40158
   H       -1.16332        -9.35141         0.14914
   H       -4.70951        -9.01189        -1.68842
   H       -2.91860       -10.79467         0.06087
   H       -9.76484       -13.31262        -0.88592
   H       -6.99346       -16.31887         0.56639
   H      -11.80069       -17.73239         0.13328
   H      -14.58736       -14.65528        -1.15002
   H      -14.32113       -18.46869         0.01619
   H      -16.22521       -16.17918        -0.75700
   H      -16.60388       -19.13245         0.00014
   H      -21.09451       -14.81602        -1.06593
   H      -22.19331       -19.54619         0.01940
*
