# ORCA input file
# SCF done       -189.599830582509          0.000263043651
! CAM-B3LYP def2-SVP def2/J RIJCOSX Grid4 TightSCF
%maxcore 5000
%tddft
    Mode sTDDFT
    Ethresh 5.0
    maxcore 5000
end

%pal
  nprocs 6
  end
* xyz 0 1
   C        0.26308         1.31543         0.37559
   N       -0.20670         0.18786        -0.03749
   C        0.73312        -0.74730         0.26364
   C        1.79592        -0.18240         0.92100
   N        1.49822         1.17771         0.98005
   C        2.20906         2.23899         1.54964
   O        2.72408         2.21544         2.63196
   N        2.23240         3.37707         0.74911
   C        2.00598         3.52141        -0.60977
   C        2.22065         4.83173        -0.88640
   N        2.56700         5.50838         0.25296
   C        2.57987         4.63547         1.19934
   C        3.01799        -0.83659         1.36390
   C        3.56517        -1.80872         0.51399
   C        4.70360        -2.48588         0.88741
   C        5.31171        -2.18094         2.12011
   C        4.76319        -1.23841         2.97514
   C        3.61175        -0.57443         2.59801
   C        6.50750        -2.97944         2.26202
   C        6.63897        -3.78918         1.12282
   C        5.49690        -3.54667         0.15032
   C        6.12643        -3.00324        -1.15298
   C        5.18780        -2.75592        -2.32599
   C        4.73890        -4.88184        -0.04930
   C        3.24516        -4.78988        -0.33778
   C        7.70263        -4.64892         1.00195
   C        8.69495        -4.67540         1.99837
   C        8.53964        -3.86397         3.13432
   C        7.45226        -3.03077         3.27875
   C        9.85088        -5.50936         1.81113
   C       11.06158        -5.27937         2.38709
   C       12.24716        -6.01943         2.20549
   C       12.44068        -7.26080         1.64815
   C       13.71035        -7.86942         1.48727
   C       13.67245        -9.12929         0.97166
   C       12.36774        -9.59878         0.71160
   S       11.19171        -8.36973         1.10155
   C       12.01824       -10.86011         0.24740
   C       12.89897       -11.89393        -0.12938
   C       12.27704       -13.04911        -0.50755
   C       10.87103       -12.99809        -0.43813
   S       10.36686       -11.39924         0.09758
   C        9.88711       -13.95085        -0.62318
   C        9.92673       -15.29043        -1.03802
   C        8.72245       -16.05433        -0.86628
   C        8.62641       -17.44722        -1.22813
   N        7.50867       -18.14008        -0.92229
   C        6.50152       -17.51985        -0.35597
   C        6.56719       -16.11877        -0.08889
   N        7.66921       -15.44019        -0.33168
   C        5.45099       -15.44263         0.45608
   N        4.53549       -14.91451         0.89987
   C        5.32969       -18.23173        -0.00058
   N        4.35335       -18.74764         0.30485
   C        9.68479       -18.12140        -1.85702
   C       10.86698       -17.38182        -2.05181
   C       11.00016       -16.00017        -1.64446
   N       12.20086       -15.52354        -1.95818
   S       13.06955       -16.67188        -2.68013
   N       11.97351       -17.84257        -2.63375
   C        9.60370       -19.49628        -2.24498
   C       10.58971       -20.45236        -2.38283
   N       10.04146       -21.65364        -2.67730
   C        8.75733       -21.47047        -2.71539
   N        8.41257       -20.17188        -2.44444
   C        7.13635       -19.60774        -2.66769
   O        6.94032       -18.70398        -3.43603
   N        6.12240       -20.35995        -2.08787
   C        4.78689       -20.31546        -2.44488
   C        4.15388       -21.20272        -1.63866
   N        5.04832       -21.78344        -0.78031
   C        6.19877       -21.27311        -1.05696
   H       -0.24644         2.25650         0.31741
   H        0.57897        -1.77830         0.01719
   H        1.74728         2.69789        -1.24191
   H        2.15197         5.34199        -1.82558
   H        2.81068         4.82120         2.22855
   H        3.07664        -1.99621        -0.42780
   H        5.22440        -1.02535         3.92731
   H        3.17073         0.14587         3.26666
   H        6.88976        -3.71770        -1.47044
   H        6.63828        -2.06861        -0.90590
   H        4.68848        -3.67114        -2.63042
   H        5.76712        -2.39313        -3.17313
   H        4.44216        -2.00388        -2.08716
   H        4.86073        -5.47065         0.86384
   H        5.23013        -5.42985        -0.85591
   H        2.72021        -4.32350         0.49211
   H        2.84797        -5.79486        -0.46670
   H        3.03787        -4.22779        -1.24296
   H        7.81004        -5.28675         0.13640
   H        9.27403        -3.91486         3.92341
   H        7.34054        -2.42335         4.16414
   H        9.74728        -6.31301         1.09457
   H       11.17082        -4.39855         3.00601
   H       13.15224        -5.54908         2.57182
   H       14.61398        -7.35399         1.76108
   H       14.54281        -9.73402         0.79408
   H       13.96658       -11.76869        -0.11524
   H       12.78447       -13.93722        -0.83231
   H        8.88711       -13.62948        -0.35395
   H       11.64690       -20.32747        -2.27458
   H        8.03452       -22.22501        -2.95463
   H        4.44716       -19.67262        -3.22931
   H        3.11676       -21.46541        -1.60512
   H        7.11289       -21.49960        -0.54613
*
