# ORCA input file
# SCF done       -177.128162944355          0.000602565654
! CAM-B3LYP def2-SVP def2/J RIJCOSX Grid4 TightSCF
%maxcore 5000
%tddft
    Mode sTDDFT
    Ethresh 5.0
    maxcore 5000
end

%pal
  nprocs 6
  end
* xyz 0 1
   C       10.86380       -10.88084       -17.14591
   C       10.99732       -10.92450       -18.50097
   S        9.77285       -11.90327       -19.21704
   C        9.05468       -12.25929       -17.66265
  Cl        7.68739       -13.24797       -17.52686
   C        9.75239       -11.64765       -16.66435
   C        9.65733       -11.53437       -15.20404
   O        8.77717       -11.92414       -14.48043
   C       10.86384       -10.72235       -14.81342
   C       11.54113       -10.26166       -16.02760
   C       12.61549        -9.42423       -16.12364
   C       13.17523        -9.08457       -17.37536
   N       13.64092        -8.79716       -18.38303
   C       13.27366        -8.80291       -15.04181
   N       13.85255        -8.26251       -14.21141
   C       11.21920       -10.48091       -13.54148
   C       10.57182       -11.11906       -12.39052
   N       10.52277       -12.44806       -12.38920
   C        9.93686       -13.01407       -11.34864
   C        9.42065       -12.28373       -10.29248
   C        9.57711       -10.89295       -10.35388
   N       10.15294       -10.32689       -11.41881
   C        9.18581        -9.97116        -9.31130
   C        8.81503       -10.32332        -8.07083
   N        8.52036        -9.40955        -7.09604
   C        8.34192        -9.69288        -5.78470
   S        8.39915       -11.32754        -5.20887
   C        8.27016       -10.74811        -3.57536
   N        8.25893       -11.70302        -2.55612
   O        8.17933       -11.30859        -1.40747
   O        8.33137       -12.87076        -2.90383
   C        8.19935        -9.38573        -3.49005
   C        8.21212        -8.75214        -4.74949
   C        8.13545        -7.32705        -4.88939
   C        7.61506        -6.62958        -5.93257
   C        7.61182        -5.21999        -5.97565
   C        6.96540        -4.46509        -6.91768
   C        6.95552        -3.04931        -7.00381
   C        6.18745        -2.55718        -8.01229
   C        5.53294        -3.55407        -8.77412
   S        5.96093        -5.14321        -8.19463
   C        4.63302        -3.36200        -9.80724
   C        4.21083        -2.13203       -10.35832
   C        3.26847        -2.26470       -11.33393
   C        2.89314        -3.60253       -11.59797
   S        3.80495        -4.69565       -10.58123
   C        1.92965        -4.01472       -12.49667
   C        1.57043        -5.34693       -12.67926
   C        0.57472        -5.78209       -13.53041
   C        0.15064        -7.14357       -13.73824
   C        0.67609        -8.27704       -13.16146
   C        0.20752        -9.58140       -13.41465
   N       -0.12654       -10.66872       -13.57561
   C        1.74605        -8.31515       -12.24579
   N        2.60880        -8.44013       -11.49656
   C       -0.95976        -7.12351       -14.68930
   C       -1.20699        -5.78209       -15.06902
   C       -0.25699        -4.89420       -14.36711
   O       -0.19630        -3.68423       -14.47215
   C       -2.19721        -5.43058       -15.95236
   C       -2.98632        -6.45395       -16.48904
   C       -2.73287        -7.79095       -16.10469
   C       -1.72898        -8.14594       -15.21078
   S       -3.82439        -8.89721       -16.88315
   C       -4.59544        -7.56505       -17.70246
   C       -4.06488        -6.35422       -17.41039
  Br       -6.02883        -7.89863       -18.86593
   H       11.72771       -10.45212       -19.12758
   H       12.02939        -9.80650       -13.29973
   H        9.89114       -14.09508       -11.36861
   H        8.92935       -12.77001        -9.46731
   H        9.26852        -8.92808        -9.58276
   H        8.74436       -11.35464        -7.75752
   H        8.58838        -8.42848        -7.34412
   H        8.11776        -8.86759        -2.55165
   H        8.48740        -6.76947        -4.03097
   H        7.11996        -7.13874        -6.75016
   H        8.15338        -4.68976        -5.20338
   H        7.51568        -2.44425        -6.31320
   H        6.06104        -1.51033        -8.22032
   H        4.60674        -1.18974       -10.02515
   H        2.82145        -1.44497       -11.86740
   H        1.41906        -3.25411       -13.06977
   H        2.10883        -6.08282       -12.09465
   H       -2.35999        -4.39840       -16.22043
   H       -1.57855        -9.18010       -14.95039
   H       -4.41803        -5.42798       -17.82564
*
