# ORCA input file
# SCF done       -231.610926466115          0.000998775819
! CAM-B3LYP def2-SVP def2/J RIJCOSX Grid4 TightSCF
%maxcore 5000
%tddft
    Mode sTDDFT
    Ethresh 5.0
    maxcore 5000
end

%pal
  nprocs 6
  end
* xyz 0 1
   C        2.89758         0.70744         0.99780
   C        3.77469         1.52675         1.66342
   C        4.53797         1.12620         2.77799
   N        5.18653         0.84987         3.68459
   C        4.00492         2.88134         1.34695
   N        4.22849         3.99303         1.16335
   C        2.56190        -0.66110         1.36865
   C        1.52786        -1.11778         0.51617
   C        0.98738        -2.37638         0.61647
   C        1.48908        -3.22519         1.60877
   C        2.52456        -2.76128         2.45379
   C        3.07306        -1.48868         2.35087
   S        3.00088        -3.97294         3.60511
   C        1.81675        -5.06999         2.94570
   C        1.10112        -4.55816         1.91664
  Br        1.63668        -6.78789         3.67783
   C        1.16979        -0.05389        -0.44323
   O        0.36136        -0.15598        -1.34431
   C        2.07797         1.07656        -0.13868
   C        2.27824         2.15536        -0.95253
   C        1.39860         2.59969        -1.98961
   C        0.02765         2.54334        -1.83496
   C       -0.81887         2.98352        -2.86801
   C       -2.20617         3.03598        -2.97407
   C       -3.28138         2.73083        -1.98565
   C       -3.50727         1.21486        -1.77921
   N       -2.47552         0.61133        -0.96074
   C       -3.06301         3.43962        -0.63983
   N       -3.04885         4.87858        -0.85195
   C       -2.49323         3.48236        -4.32064
   C       -3.66485         3.64208        -4.96190
   C       -3.71799         4.02395        -6.40264
   C       -2.39470         4.37502        -6.99974
   C       -1.23279         4.22652        -6.33910
   C       -1.22371         3.74722        -5.00494
   C       -0.21489         3.45290        -4.11445
   C        1.19380         3.55211        -4.21907
   C        1.97019         3.16579        -3.17916
   C       -4.76022         5.08667        -6.63437
   C       -6.08054         4.83119        -6.61541
   C       -7.16498         5.73702        -6.85502
   C       -8.39120         5.17011        -6.79263
   C       -8.38295         3.78584        -6.46731
   S       -6.73331         3.21814        -6.28642
   C       -9.44617         2.94526        -6.26160
   C      -10.83326         3.20899        -6.40281
   C      -11.62597         2.15220        -6.10184
   C      -10.93251         0.97692        -5.67882
   S       -9.20199         1.29550        -5.71797
   C      -11.53586        -0.19567        -5.33695
   C      -10.96537        -1.41787        -4.85304
   C      -11.78323        -2.56513        -4.81870
   C      -11.27601        -3.75557        -4.36497
   C       -9.94842        -3.83578        -3.91162
   C       -9.13512        -2.70988        -3.91686
   C       -9.64386        -1.52014        -4.38755
   C       -9.68799        -5.19135        -3.49854
   C      -10.84245        -5.96880        -3.72349
   C      -11.96640        -5.10427        -4.25649
   C      -13.08905        -4.94029        -3.20433
   C      -13.86990        -6.19122        -2.82654
   C      -12.49577        -5.49576        -5.65693
   C      -12.55071        -6.98075        -5.99458
   C      -10.82133        -7.30723        -3.41684
   C       -9.67474        -7.88490        -2.84163
   C       -8.54177        -7.08965        -2.62040
   C       -8.53929        -5.75433        -2.95569
   C       -9.74072        -9.27153        -2.47197
   C       -8.90688        -9.91743        -1.62130
   C       -8.98942       -11.28820        -1.27257
   C      -10.01231       -12.18812        -1.36701
   C      -11.43412       -12.08461        -1.60852
   C      -12.25814       -11.03041        -1.30181
   C      -13.64969       -11.02433        -1.52190
   N      -14.78108       -10.94115        -1.70143
   C      -11.83019        -9.84212        -0.67860
   N      -11.55034        -8.85670        -0.16018
   C      -11.90465       -13.40818        -2.01281
   C      -10.86555       -14.34658        -1.79656
   C       -9.66788       -13.63477        -1.30816
   O       -8.60892       -14.11433        -0.97143
   C      -11.01820       -15.68880        -2.04356
   C      -12.25128       -16.12419        -2.54071
   C      -13.27697       -15.17693        -2.77035
   C      -13.12578       -13.82001        -2.51085
   S      -14.71125       -15.92859        -3.40076
   C      -13.92655       -17.48473        -3.34130
   C      -12.65540       -17.44550        -2.87705
  Br      -14.85870       -19.01254        -3.90312
   H        0.20106        -2.69683        -0.04885
   H        3.86526        -1.18342         3.01384
   H        0.33184        -5.09716         1.39445
   H        3.20694         2.70565        -0.85392
   H       -0.38995         2.19040        -0.90641
   H       -4.21472         3.12899        -2.39606
   H       -3.61352         0.74841        -2.77418
   H       -4.45778         1.09581        -1.24996
   H       -1.61119         0.50007        -1.48273
   H       -2.76295        -0.31434        -0.66466
   H       -2.15585         3.05095        -0.16090
   H       -3.90863         3.20874         0.01375
   H       -2.26366         5.13227        -1.44402
   H       -2.94018         5.36311         0.03218
   H       -4.61608         3.46527        -4.48065
   H       -4.08843         3.11672        -6.91859
   H       -2.41760         4.73700        -8.01664
   H       -0.29374         4.47049        -6.81428
   H        1.63184         3.93961        -5.12708
   H        3.04638         3.23779        -3.23690
   H       -4.41078         6.09227        -6.80920
   H       -6.97735         6.77303        -7.07416
   H       -9.31364         5.69899        -6.95512
   H      -11.19534         4.16654        -6.73232
   H      -12.70065         2.16592        -6.15547
   H      -12.61288        -0.20898        -5.46021
   H      -12.80317        -2.49512        -5.16912
   H       -8.11903        -2.76276        -3.55629
   H       -9.01617        -0.64465        -4.37071
   H      -13.78702        -4.19087        -3.58591
   H      -12.63243        -4.53051        -2.29903
   H      -14.34193        -6.64357        -3.69392
   H      -14.65457        -5.92049        -2.12299
   H      -13.23047        -6.92262        -2.34064
   H      -11.85089        -5.01593        -6.39868
   H      -13.49415        -5.06776        -5.76964
   H      -12.94505        -7.09905        -7.00240
   H      -13.19699        -7.52927        -5.31622
   H      -11.55683        -7.42044        -5.96789
   H      -11.68262        -7.93550        -3.57702
   H       -7.65133        -7.53360        -2.20335
   H       -7.65993        -5.14928        -2.79394
   H      -10.54344        -9.83253        -2.93492
   H       -8.06660        -9.38360        -1.19986
   H       -8.06196       -11.73508        -0.92300
   H      -10.21244       -16.38182        -1.85938
   H      -13.93489       -13.13601        -2.70663
   H      -12.02634       -18.31089        -2.77540
*
