# ORCA input file
# SCF done       -176.321265123118          0.000789861111
! CAM-B3LYP def2-SVP def2/J RIJCOSX Grid4 TightSCF
%maxcore 5000
%tddft
    Mode sTDDFT
    Ethresh 5.0
    maxcore 5000
end

%pal
  nprocs 6
  end
* xyz 0 1
   C      -13.26547         9.89062        -3.12001
   C      -14.33542        10.23488        -2.33605
   C      -15.31118        11.18581        -2.69844
   N      -16.13212        11.94990        -2.94229
   C      -14.58520         9.68310        -1.06289
   N      -14.81644         9.25691        -0.02244
   C      -12.95552        10.44299        -4.43679
   C      -11.75400         9.85560        -4.91243
   C      -11.20422        10.17165        -6.13162
   C      -11.87181        11.11170        -6.92297
   C      -13.06929        11.69347        -6.44155
   C      -13.62417        11.37440        -5.20702
   S      -13.73043        12.82657        -7.57866
   C      -12.40940        12.50840        -8.67169
   C      -11.51672        11.60032        -8.20955
  Br      -12.33253        13.40375       -10.31723
   C      -11.26372         8.90510        -3.91076
   O      -10.25008         8.21282        -3.97130
   C      -12.22947         8.93206        -2.80786
   C      -12.08387         8.11694        -1.71067
   N      -11.03042         7.29594        -1.63832
   C      -10.72812         6.39866        -0.66928
   S      -11.75404         6.13283         0.70235
   C      -10.65111         4.91460         1.25735
   N      -10.96221         4.26368         2.46279
   O      -10.19132         3.41450         2.86105
   O      -11.99065         4.60887         3.01538
   C       -9.57124         4.72646         0.43952
   C       -9.58923         5.57888        -0.68326
   C       -8.59154         5.64977        -1.71134
   C       -7.56806         4.78854        -1.88462
   C       -6.60806         4.93869        -2.92528
   C       -5.58389         4.05542        -3.24347
   C       -5.39399         2.87274        -2.50926
   N       -5.28559         1.92769        -1.86950
   C       -4.79980         4.49687        -4.34195
   C       -5.25411         5.72441        -4.81561
   S       -6.61975         6.34062        -3.97525
   S       -4.35813         6.38362        -6.14269
   C       -3.34383         4.97778        -6.07960
   C       -3.67503         4.04966        -5.09836
   C       -2.80841         2.92868        -5.14213
   C       -2.87169         1.80416        -4.31067
   N       -2.88676         0.85999        -3.65779
   C       -1.83686         3.03563        -6.14533
   S       -1.98902         4.53381        -7.04562
   C       -0.85124         2.07727        -6.43008
   C        0.14157         2.16692        -7.37143
   C        1.12679         1.17845        -7.63541
   C        2.02100         1.52120        -8.60079
   C        1.80199         2.80274        -9.15646
   S        0.39547         3.54820        -8.41933
   C        2.53720         3.46493       -10.11482
   C        3.70952         3.02887       -10.77943
   C        4.21269         3.93809       -11.65273
   C        3.48232         5.15820       -11.72527
   S        2.09440         5.06982       -10.65440
   C        3.77442         6.19080       -12.57171
   C        3.15596         7.45816       -12.68761
   C        2.53473         8.28511       -11.75913
   C        2.01438         9.46603       -12.35193
   S        1.10639        10.76565       -11.58323
   C        0.83205        10.05602        -9.92843
   C        2.13449         9.56323        -9.34122
   S        2.59879         7.94383       -10.04043
   C        2.27520         9.54490       -13.68992
   S        3.15834         8.20255       -14.27365
   H      -10.28968         9.70704        -6.46534
   H      -14.53892        11.84438        -4.88680
   H      -10.64420        11.28671        -8.75292
   H      -12.79163         8.10086        -0.89201
   H      -10.40285         7.36684        -2.46303
   H       -8.80128         4.00995         0.65934
   H       -8.67244         6.47251        -2.41071
   H       -7.43679         3.92645        -1.24591
   H       -0.88631         1.17724        -5.82924
   H        1.13722         0.24924        -7.09399
   H        2.83304         0.89494        -8.92386
   H        4.14434         2.06452       -10.58784
   H        5.09804         3.78888       -12.24534
   H        4.54553         5.99446       -13.30720
   H        0.09987         9.25075       -10.00137
   H        0.41665        10.87395        -9.33959
   H        2.03874         9.37328        -8.27210
   H        2.94301        10.27456        -9.51386
   H        1.98382        10.33486       -14.35188
*
