# ORCA input file
# SCF done       -226.334297953892          0.000690848999
! CAM-B3LYP def2-SVP def2/J RIJCOSX Grid4 TightSCF
%maxcore 5000
%tddft
    Mode sTDDFT
    Ethresh 5.0
    maxcore 5000
end

%pal
  nprocs 6
  end
* xyz 0 1
   C       -0.86769         1.51931         1.42085
   C       -0.46399         0.59788         0.48724
   C        0.71932        -0.16352         0.58850
   N        1.66622        -0.81226         0.61075
   C       -1.15373         0.26415        -0.69642
   N       -1.65022        -0.06365        -1.67981
   C       -0.14529         1.84230         2.64790
   C       -0.88776         2.80801         3.37084
   C       -0.46965         3.31929         4.57472
   C        0.74379         2.85534         5.09358
   C        1.48009         1.89070         4.36570
   C        1.05545         1.37381         3.14749
   S        2.94882         1.45589         5.18566
   C        2.55925         2.56019         6.47725
   C        1.38995         3.22180         6.30553
  Br        3.73216         2.73707         7.92979
   C       -2.11723         3.13122         2.62412
   O       -2.98205         3.91504         2.97205
   C       -2.07229         2.32750         1.39765
   C       -2.99120         2.35109         0.37857
   C       -4.18902         3.06485         0.24275
   S       -4.88043         4.14362         1.42321
   C       -6.24371         4.43754         0.40054
   C       -6.15529         3.76600        -0.81599
   C       -5.00048         2.99051        -0.90437
   C       -4.65112         2.20391        -2.12772
   C       -5.82147         2.12648        -3.10472
   C       -6.45802         3.50899        -3.27994
   O       -7.48565         3.53879        -4.24914
   C       -7.05005         3.51159        -5.58432
   C       -7.10848         3.91109        -1.95533
   C       -7.26261         5.32508         0.88912
   C       -8.64501         5.11383         0.72824
   C       -9.62673         6.03397         1.26145
   N      -10.92531         5.84432         0.96745
   C      -11.29555         4.77638         0.31402
   C      -10.33190         3.77330        -0.05184
   N       -9.05650         3.97932         0.13609
   C      -10.75681         2.55180        -0.63179
   N      -11.12959         1.57439        -1.09826
   C      -12.66213         4.60500        -0.02001
   N      -13.75991         4.42489        -0.29287
   C       -9.26928         7.14629         2.05083
   C       -7.88781         7.33988         2.23277
   C       -6.90681         6.44481         1.66310
   N       -5.66028         6.81856         1.96343
   S       -5.71084         8.12003         2.88736
   N       -7.29972         8.30749         2.94966
   C      -10.24633         8.02986         2.66343
   C       -9.93995         9.39041         2.81744
   C      -10.82840        10.22104         3.45373
   C      -12.07159         9.72506         3.88699
   C      -12.39235         8.38397         3.72438
   C      -11.47410         7.54366         3.13075
   C      -12.82515        10.81312         4.46483
   C      -12.04175        11.98076         4.40874
   C      -10.70979        11.70360         3.74203
   C       -9.58862        12.01813         4.75525
   C       -8.16518        11.72279         4.29903
   C      -10.56398        12.44061         2.39356
   C      -10.55576        13.96240         2.45865
   C      -12.50841        13.14283         4.97097
   C      -13.79957        13.18825         5.52530
   C      -14.57825        12.02185         5.53902
   C      -14.09456        10.83657         5.02961
   C      -14.26865        14.45460         6.01804
   C      -15.52430        14.76181         6.41842
   C      -15.93384        16.03645         6.89115
   C      -15.40469        17.27692         6.69225
   C      -14.41930        17.82036         5.78056
   C      -14.10688        17.36556         4.52486
   C      -13.17425        17.98538         3.66883
   N      -12.40468        18.42521         2.93899
   C      -14.71381        16.25525         3.90526
   N      -15.17840        15.37422         3.33495
   C      -13.98114        19.10206         6.32837
   C      -14.82915        19.45141         7.40862
   C      -15.80378        18.36510         7.62823
   O      -16.71135        18.33443         8.42735
   C      -14.69408        20.62857         8.10354
   C      -13.66649        21.49746         7.72161
   C      -12.81464        21.13237         6.65180
   C      -12.95599        19.94526         5.94376
   S      -11.60636        22.34500         6.35454
   C      -12.25604        23.31551         7.64958
   C      -13.32108        22.76079         8.27533
  Br      -11.46435        24.96701         8.05379
   H       -1.05981         4.05369         5.10001
   H        1.65476         0.64143         2.63347
   H        0.99819         3.93865         7.00381
   H       -2.76878         1.72211        -0.47263
   H       -4.33939         1.19194        -1.85936
   H       -3.79652         2.68268        -2.61840
   H       -6.58441         1.44206        -2.73048
   H       -5.46356         1.74450        -4.06104
   H       -5.67377         4.23697        -3.55405
   H       -7.93650         3.67232        -6.19472
   H       -6.60128         2.54980        -5.85451
   H       -6.32279         4.30959        -5.78058
   H       -7.97301         3.25986        -1.80963
   H       -7.47883         4.93621        -2.01638
   H       -9.01636         9.76563         2.41110
   H      -13.34093         7.99904         4.06624
   H      -11.69736         6.49318         3.03797
   H       -9.79441        11.43909         5.65983
   H       -9.66385        13.07343         5.02318
   H       -8.01621        10.65915         4.13829
   H       -7.47025        12.04685         5.07138
   H       -7.92354        12.25903         3.38522
   H      -11.39267        12.12323         1.75517
   H       -9.64172        12.09702         1.92257
   H      -11.52166        14.34520         2.77666
   H      -10.35244        14.36256         1.46776
   H       -9.78626        14.32986         3.13259
   H      -11.90486        14.03807         4.98408
   H      -15.56507        12.04476         5.97326
   H      -14.69331         9.93926         5.06786
   H      -13.51252        15.22938         6.07180
   H      -16.27941        13.98956         6.45453
   H      -16.77918        16.03322         7.57469
   H      -15.36042        20.87242         8.91593
   H      -12.27912        19.70876         5.13959
   H      -13.84315        23.22162         9.09385
*
