# ORCA input file
# SCF done       -210.492365126395          0.000627990537
! CAM-B3LYP def2-SVP def2/J RIJCOSX Grid4 TightSCF
%maxcore 5000
%tddft
    Mode sTDDFT
    Ethresh 5.0
    maxcore 5000
end

%pal
  nprocs 6
  end
* xyz 0 1
   C        0.73205        -6.00730        -8.02728
   O        0.03197        -6.95244        -7.74203
   C        1.54877        -5.87965        -9.25450
   C        2.23447        -4.65330        -9.25371
   C        3.05674        -4.32903       -10.32491
   C        3.18016        -5.23201       -11.36895
   C        2.49517        -6.44112       -11.34641
   C        1.66531        -6.78580       -10.28863
  Br        2.70001        -7.64845       -12.79812
   C        1.90390        -3.93369        -8.02958
   C        2.47603        -2.76190        -7.61640
   C        3.43649        -2.04604        -8.36411
   N        4.20968        -1.41483        -8.92998
   C        2.21843        -2.11694        -6.38651
   N        2.07727        -1.54228        -5.40298
   C        0.91832        -4.72309        -7.29940
   C        0.15446        -4.24854        -6.27918
   C       -0.82593        -4.94635        -5.49339
   C       -0.71552        -6.30720        -5.17095
   C       -1.72481        -6.91093        -4.46252
   C       -2.85062        -6.17862        -4.04709
   C       -2.94494        -4.81694        -4.31530
   C       -1.92910        -4.21223        -5.02116
   C       -3.73995        -7.06935        -3.34161
   C       -3.16562        -8.35736        -3.31741
   C       -1.86514        -8.36937        -4.08773
   C       -2.00530        -9.14552        -5.42130
   C       -2.26682       -10.64042        -5.29914
   C       -0.68383        -8.87766        -3.25006
   C       -0.44382        -8.02515        -2.00906
   C       -3.79195        -9.38287        -2.65562
   C       -5.04495        -9.16201        -2.05077
   C       -5.60975        -7.87387        -2.10830
   C       -4.96507        -6.82903        -2.73054
   C       -5.79065       -10.20342        -1.41344
   C       -5.40305       -11.49640        -1.21950
   C       -6.25204       -12.46365        -0.66273
   C       -5.91336       -13.78065        -0.45543
   C       -6.76094       -14.80751         0.01831
   C       -6.16168       -16.03076         0.09984
   C       -4.80497       -16.02649        -0.28405
   S       -4.31132       -14.43195        -0.77352
   C       -3.92088       -17.10114        -0.28614
   C       -4.21116       -18.44558         0.00183
   C       -3.11471       -19.25567        -0.08722
   C       -1.91486       -18.58568        -0.41859
   S       -2.22380       -16.89003        -0.65783
   C       -0.70152       -19.25419        -0.49902
   C        0.60033       -18.79917        -0.67657
   C        1.67012       -19.76114        -0.63695
   C        3.04857       -19.36852        -0.64009
   N        4.00832       -20.30665        -0.60955
   C        3.66587       -21.57212        -0.56332
   C        2.29423       -21.96008        -0.52835
   N        1.34047       -21.05057        -0.57388
   C        1.93342       -23.32707        -0.46160
   N        1.66898       -24.44088        -0.40778
   C        4.67996       -22.56478        -0.55856
   N        5.46572       -23.39767        -0.55195
   C        3.44721       -18.00449        -0.62122
   C        2.40413       -17.06183        -0.78876
   C        1.01583       -17.45143        -0.83692
   N        0.21959       -16.41003        -1.02813
   S        1.10527       -15.06565        -1.14596
   N        2.55215       -15.74979        -0.95457
   C        4.81762       -17.68580        -0.50115
   C        5.41774       -16.51835        -0.11443
   C        6.83767       -16.28154        -0.47881
   O        7.62087       -17.07684        -0.94214
   C        7.07233       -14.84384        -0.19837
   C        5.92145       -14.29010         0.39028
   C        4.92762       -15.34849         0.56454
   C        3.84296       -15.27731         1.40478
   C        3.39954       -14.09550         2.02732
   N        2.95991       -13.15977         2.52833
   C        3.06887       -16.38776         1.78949
   N        2.41548       -17.25881         2.15641
   C        5.90013       -12.94486         0.72448
   C        7.02626       -12.17595         0.46928
   C        8.15492       -12.74578        -0.10320
   C        8.19947       -14.09019        -0.44878
  Br        9.67666       -11.65311        -0.42495
   H        3.59239        -3.39504       -10.36629
   H        3.81384        -4.99515       -12.20972
   H        1.12885        -7.72170       -10.26513
   H        0.23280        -3.19029        -6.05667
   H        0.16406        -6.85890        -5.45553
   H       -3.79545        -4.24443        -3.97780
   H       -1.98824        -3.15787        -5.24927
   H       -1.09058        -8.98493        -5.99423
   H       -2.82346        -8.69116        -5.98609
   H       -1.48313       -11.13818        -4.73443
   H       -2.29223       -11.07829        -6.29445
   H       -3.22529       -10.83348        -4.82433
   H        0.21246        -8.87753        -3.87311
   H       -0.87882        -9.90541        -2.94169
   H       -0.21701        -6.99720        -2.28321
   H        0.39332        -8.42114        -1.43931
   H       -1.32366        -8.02231        -1.36888
   H       -3.33463       -10.35701        -2.59635
   H       -6.56973        -7.70739        -1.64122
   H       -5.40477        -5.84337        -2.74816
   H       -6.78009        -9.92414        -1.07039
   H       -4.41481       -11.82638        -1.50871
   H       -7.25934       -12.16822        -0.39761
   H       -7.78713       -14.61456         0.27633
   H       -6.65524       -16.92431         0.43598
   H       -5.19749       -18.79049         0.25461
   H       -3.12994       -20.31609         0.09232
   H       -0.76863       -20.32688        -0.35505
   H        5.49857       -18.47821        -0.79725
   H        5.03115       -12.48558         1.16692
   H        7.02774       -11.12607         0.71966
   H        9.07559       -14.53595        -0.89372
*
