# ORCA input file
# SCF done       -192.105685689711          0.000721534578
! CAM-B3LYP def2-SVP def2/J RIJCOSX Grid4 TightSCF
%maxcore 5000
%tddft
    Mode sTDDFT
    Ethresh 5.0
    maxcore 5000
end

%pal
  nprocs 6
  end
* xyz 0 1
   C       -4.36219        -7.43658        -4.79719
   O       -4.50571        -7.85594        -3.65898
   C       -3.13691        -7.59088        -5.61708
   C       -3.28783        -6.88392        -6.82079
   C       -2.25865        -6.88513        -7.74721
   C       -1.10088        -7.59853        -7.45993
   C       -0.98157        -8.29311        -6.26773
   C       -1.99450        -8.30008        -5.31838
  Br        0.61437        -9.26717        -5.91577
   C       -4.61897        -6.26871        -6.82673
   C       -5.15612        -5.55176        -7.87221
   C       -4.45897        -5.24411        -9.05460
   N       -3.93252        -4.96106       -10.03623
   C       -6.47428        -5.05788        -7.90801
   N       -7.54217        -4.64694        -8.01786
   C       -5.27334        -6.62319        -5.60051
   C       -6.48392        -6.10662        -5.13682
   C       -7.23383        -6.62329        -4.09744
   S       -8.29940        -5.57253        -3.17538
   C       -8.54817        -6.76491        -1.93374
   C       -8.01858        -8.02456        -2.35313
   C       -7.28377        -7.93672        -3.56307
   C       -6.77472        -9.09494        -4.16256
   C       -6.93652       -10.29749        -3.52539
   F       -6.43669       -11.41658        -4.08092
   C       -7.65516       -10.38740        -2.32548
   F       -7.83619       -11.59059        -1.75157
   C       -8.22484        -9.27510        -1.75732
   C       -9.06972        -6.41440        -0.69193
   C       -8.75328        -7.14389         0.44188
   C       -9.11943        -6.93943         1.75795
   C       -8.51255        -7.69818         2.76216
   C       -8.66268        -7.65806         4.15502
   C       -7.82821        -8.51645         4.83992
   C       -6.98884        -9.26316         4.00909
   S       -7.30243        -8.88633         2.33580
   C       -5.93221       -10.13852         4.27049
   C       -5.29574       -10.50267         5.46504
   C       -4.15882       -11.24931         5.27178
   C       -3.84645       -11.48489         3.92056
   S       -5.10925       -10.83073         2.90291
   C       -2.76119       -12.16823         3.39403
   C       -2.40876       -12.21860         2.04330
   S       -1.65621       -13.68248         1.44785
   C       -1.85906       -13.22168        -0.19799
   C       -2.47016       -11.96448        -0.31258
   C       -2.66350       -11.33950         0.96274
   C       -2.94505        -9.95057         1.02422
   C       -2.74572        -9.18810         2.25112
   C       -3.31875        -8.02610         2.54169
   C       -3.30496        -9.32916        -0.15621
   C       -3.39347       -10.02598        -1.36283
   C       -2.95528       -11.32457        -1.48708
   C       -3.06301       -12.01128        -2.81092
   C       -1.29482       -14.07593        -1.22151
   C       -0.48846       -13.51824        -2.22444
   C        0.07306       -14.34340        -3.16632
   C       -0.14550       -15.73196        -3.12609
   C       -0.91838       -16.29197        -2.11939
   C       -1.47816       -15.46120        -1.16870
   C        0.56186       -16.33883        -4.23469
   C        1.21594       -15.32604        -4.95479
   C        0.95954       -13.97475        -4.33155
   C        0.23129       -13.03037        -5.30526
   C       -1.05590       -13.62523        -5.86314
   C        2.26707       -13.31250        -3.85969
   C        3.04468       -14.17492        -2.87291
   C        1.96236       -15.63278        -6.06714
   C        2.07976       -16.96546        -6.48231
   C        1.41952       -17.96169        -5.75586
   C        0.66358       -17.66139        -4.63987
   C        2.88540       -17.25518        -7.66068
   C        3.23442       -18.45440        -8.11251
   H       -2.33121        -6.34891        -8.67896
   H       -0.28955        -7.61028        -8.17183
   H       -1.90232        -8.83618        -4.38623
   H       -6.83152        -5.17530        -5.56671
   H       -6.29029        -9.06239        -5.12391
   H       -8.85184        -9.40050        -0.89079
   H       -9.61360        -5.48429        -0.60516
   H       -8.03343        -7.93769         0.29095
   H       -9.84803        -6.19164         2.03463
   H       -9.36136        -6.99368         4.63249
   H       -7.80420        -8.60489         5.91176
   H       -5.66192       -10.19540         6.42829
   H       -3.52256       -11.59553         6.06754
   H       -2.20063       -12.79852         4.07433
   H       -2.04219        -9.62364         2.95068
   H       -4.05696        -7.57301         1.90208
   H       -3.08633        -7.49781         3.45032
   H       -3.52448        -8.27338        -0.15586
   H       -3.77940        -9.50452        -2.22667
   H       -2.18814       -11.82217        -3.43152
   H       -3.93003       -11.62889        -3.34462
   H       -3.16932       -13.08644        -2.69419
   H       -0.29335       -12.45663        -2.22035
   H       -1.08115       -17.35807        -2.07529
   H       -2.08925       -15.87609        -0.37987
   H        0.90519       -12.78664        -6.12815
   H        0.00989       -12.09928        -4.78088
   H       -0.84660       -14.52759        -6.43310
   H       -1.54254       -12.90903        -6.52121
   H       -1.74652       -13.88029        -5.06226
   H        2.02686       -12.35287        -3.39781
   H        2.88856       -13.11077        -4.73384
   H        2.45656       -14.36295        -1.97715
   H        3.96410       -13.67256        -2.58184
   H        3.30254       -15.13263        -3.31995
   H        2.46493       -14.85485        -6.62452
   H        1.49360       -18.98879        -6.07744
   H        0.15894       -18.44547        -4.09487
   H        3.22998       -16.37729        -8.19411
   H        2.94313       -19.36974        -7.62695
   H        3.83994       -18.56397        -8.99568
*
