# ORCA input file
# SCF done       -132.076521987980          0.000595792956
! CAM-B3LYP def2-SVP def2/J RIJCOSX Grid4 TightSCF
%maxcore 5000
%tddft
    Mode sTDDFT
    Ethresh 5.0
    maxcore 5000
end

%pal
  nprocs 6
  end
* xyz 0 1
   C        1.23558        -2.91492        -1.39682
   C        1.18188        -1.93438        -2.34326
   C        0.71592        -0.63153        -2.05359
   C        0.28097        -0.25199        -0.80820
   C        0.32986        -1.24176         0.20641
   C        0.81075        -2.57092        -0.09911
   N        0.75898        -3.27183         1.01880
   O        0.28764        -2.44337         1.94816
   N        0.02512        -1.22613         1.48882
   C       -0.21873         1.09868        -0.54772
   N       -0.90283         1.29155         0.57642
   C       -1.36002         2.51226         0.79559
   C       -1.14835         3.55362        -0.08901
   C       -0.41275         3.26091        -1.24966
   N        0.04302         2.02169        -1.46294
   C       -0.12655         4.27338        -2.23085
   C        0.63400         4.04117        -3.32978
   C        0.92741         5.02638        -4.29444
   C        1.70949         4.83116        -5.40174
   C        2.38905         3.66130        -5.83500
   C        3.09531         3.81647        -6.98518
   C        3.02213         5.11787        -7.53930
   S        2.01027         6.13907        -6.53782
   C        3.63645         5.58267        -8.68064
   C        4.48740         4.87862        -9.56641
   C        4.96065         5.62078       -10.60148
   C        4.51059         6.96700       -10.60363
   S        3.44429         7.23894        -9.21969
   C        4.82196         7.94438       -11.49912
   N        4.32143         9.20475       -11.40932
   C        4.59777        10.24999       -12.21909
   S        5.74344        10.09940       -13.51309
   C        5.47051        11.76694       -13.92221
   N        6.18955        12.27710       -15.00207
   O        6.01496        13.44315       -15.30783
   O        6.94947        11.50126       -15.56418
   C        4.55714        12.38681       -13.11279
   C        4.03419        11.53557       -12.12162
   C        3.04759        11.89449       -11.14072
   C        2.50287        13.11895       -11.00726
   C        1.50278        13.49224       -10.04101
   C        0.89484        12.66395        -9.11941
   C       -0.08501        13.11235        -8.20770
   C       -0.51693        14.40753        -8.15923
   C        0.06754        15.30118        -9.07584
   C        1.06873        14.84719       -10.00989
   N        1.42971        15.88879       -10.73306
   O        0.71139        16.91605       -10.28862
   N       -0.11228        16.59133        -9.29520
   H        1.58353        -3.91297        -1.60511
   H        1.49797        -2.14893        -3.35346
   H        0.68729         0.10349        -2.84304
   H       -1.91544         2.64683         1.71511
   H       -1.52413         4.54666         0.09787
   H       -0.54279         5.25513        -2.05039
   H        1.03354         3.04578        -3.45553
   H        0.50522         6.01147        -4.14450
   H        2.33848         2.74192        -5.28079
   H        3.66882         3.03573        -7.45199
   H        4.72654         3.84270        -9.40858
   H        5.61963         5.25340       -11.36725
   H        5.48857         7.74367       -12.32396
   H        3.68041         9.37273       -10.64095
   H        4.28633        13.41735       -13.24840
   H        2.72743        11.10590       -10.47242
   H        2.81095        13.92628       -11.65498
   H        1.16451        11.61965        -9.08040
   H       -0.50483        12.38807        -7.52506
   H       -1.26497        14.75005        -7.46470
*
