# ORCA input file
# SCF done       -144.491103681825          0.000239471727
! CAM-B3LYP def2-SVP def2/J RIJCOSX Grid4 TightSCF
%maxcore 5000
%tddft
    Mode sTDDFT
    Ethresh 5.0
    maxcore 5000
end

%pal
  nprocs 6
  end
* xyz 0 1
   C        5.10504         7.09881         5.04924
   S        4.08239         5.89614         4.42003
   C        3.24200         7.02898         3.39708
   C        3.76955         8.32081         3.55709
   C        4.84378         8.34235         4.51700
   C        5.52791         9.54669         4.84513
   C        6.63634         9.52974         5.84970
   C        5.13052        10.68661         4.21356
   C        4.08548        10.67505         3.27000
   C        3.39956         9.54106         2.92407
   C        2.30650         9.64012         1.90427
   C        2.18575         6.55411         2.58317
   C        1.77645         5.26209         2.51796
   C        0.70403         4.81432         1.70675
   S       -0.14921         5.94060         0.68498
   C       -1.16787         4.68677         0.10384
   C       -0.88365         3.46760         0.63045
   C       -1.69803         2.26376         0.28458
   C        0.20404         3.51828         1.56148
   C        0.73409         2.41816         2.31916
   C        0.65410         1.10427         2.02438
   C        1.20211         0.08243         2.86050
   C        1.06773        -1.23004         2.58391
   C        1.55035        -2.34191         3.36277
   C        2.65834        -2.41974         4.11276
   C        3.68668        -1.34315         4.24653
   C        2.97980        -3.70560         4.84301
   N        3.52046        -3.48096         6.16259
   C        2.87983        -2.88614         7.17295
   C        1.64884        -2.28332         7.12874
   C        0.98222        -1.71798         8.22931
   C        1.30522        -1.79497         9.56804
   C        0.61945        -1.18919        10.64654
   C        1.14725        -1.44660        11.88311
   C        2.28277        -2.27602        11.84709
   S        2.64971        -2.72546        10.20368
   C        3.13937        -2.75705        12.82685
   C        3.20320        -2.57878        14.21819
   C        4.26052        -3.21962        14.80432
   C        5.08659        -3.93526        13.90170
   S        4.45761        -3.77266        12.28211
   C        6.20820        -4.66884        14.20757
   C        7.03945        -5.36794        13.31023
   S        8.34380        -6.35633        13.96482
   C        8.90021        -6.89471        12.42379
   C        8.12883        -6.34587        11.43047
   C        7.09193        -5.48887        11.92845
   O        6.38607        -4.96429        10.90039
   C        6.93646        -5.47762         9.76919
   N        6.39316        -5.11142         8.53603
   O        6.89214        -5.61459         7.53432
   O        5.45923        -4.31955         8.49638
   C        7.99494        -6.32008        10.01790
   H        5.84443         6.83210         5.77693
   H        7.43411         8.86107         5.52744
   H        6.27227         9.17651         6.81418
   H        7.04907        10.52713         5.97796
   H        5.62052        11.62464         4.43152
   H        3.81905        11.61133         2.80048
   H        2.22340        10.66571         1.55118
   H        1.34675         9.35170         2.33151
   H        2.51465         9.00250         1.04605
   H        1.66492         7.27269         1.97306
   H        2.28790         4.51717         3.11197
   H       -1.93947         4.92968        -0.60047
   H       -2.63188         2.57328        -0.18028
   H       -1.92335         1.68491         1.17804
   H       -1.16728         1.62552        -0.42184
   H        1.26912         2.69225         3.22010
   H        0.18613         0.76783         1.11297
   H        1.69522         0.40325         3.76659
   H        0.48540        -1.50788         1.71220
   H        0.93698        -3.23409         3.28558
   H        3.66691        -0.68224         3.38349
   H        4.67811        -1.78396         4.33690
   H        3.50868        -0.74775         5.14263
   H        3.72954        -4.26319         4.27280
   H        2.07692        -4.32562         4.91131
   H        4.41778        -3.88227         6.39139
   H        3.45975        -2.88783         8.08205
   H        1.14305        -2.20940         6.17635
   H        0.07620        -1.16759         8.00490
   H       -0.24712        -0.57192        10.48101
   H        0.74721        -1.06518        12.80599
   H        2.48243        -1.98498        14.75300
   H        4.47637        -3.19442        15.85818
   H        6.48517        -4.73795        15.25071
   H        9.73528        -7.55822        12.35475
   H        8.57799        -6.83168         9.28095
*
