# ORCA input file
# SCF done       -203.019847999630          0.000515249535
! CAM-B3LYP def2-SVP def2/J RIJCOSX Grid4 TightSCF
%maxcore 5000
%tddft
    Mode sTDDFT
    Ethresh 5.0
    maxcore 5000
end

%pal
  nprocs 6
  end
* xyz 0 1
   C       -0.27283         7.70562         4.10865
   C        0.67790         6.84354         4.60534
   C        1.78953         7.24959         5.36900
   N        2.71648         7.51423         5.99424
   C        0.69369         5.44519         4.44005
   N        0.78667         4.30194         4.35776
   C       -0.26552         9.15538         4.30457
   C       -1.40405         9.69988         3.66349
   C       -1.68511        11.04290         3.66015
   C       -0.79476        11.89600         4.32256
   C        0.33973        11.34490         4.95963
   C        0.62184         9.98294         4.96358
   S        1.30917        12.57447         5.71485
   C        0.19044        13.79520         5.16966
   C       -0.85526        13.31022         4.45996
  Br        0.50844        15.59684         5.58785
   C       -2.16840         8.60426         3.03636
   O       -3.20983         8.73438         2.40668
   C       -1.43544         7.37870         3.32043
   C       -1.77570         6.10392         2.89437
   C       -2.83376         5.66286         2.11997
   S       -4.10080         6.65951         1.45254
   C       -4.85688         5.32588         0.66541
   C       -4.16484         4.12026         0.90214
   C       -3.02655         4.30127         1.73592
   C       -2.24742         3.20235         2.08958
   C       -2.58632         1.93775         1.63074
   O       -1.77763         0.93240         2.03383
   C       -2.05758        -0.38768         1.63268
   C       -3.71283         1.76310         0.80134
   C       -4.48685         2.83482         0.44376
   C       -6.02077         5.50660        -0.12227
   C       -6.67986         6.69063        -0.15074
   C       -7.86781         6.98863        -0.89414
   C       -8.69349         5.99036        -1.34535
   S      -10.14314         6.52608        -2.07390
   C       -9.66480         8.17682        -1.80793
   C       -8.41398         8.30247        -1.18575
   C       -7.89085         9.60461        -0.98504
   C       -6.49863         9.77103        -0.42947
   C       -6.48281         9.84390         1.10260
   C       -8.65067        10.72224        -1.31299
   C       -8.12272        12.11103        -1.06895
   C       -7.41012        12.65805        -2.30917
   C       -9.92922        10.58302        -1.90245
   C      -10.91802        11.56956        -2.28230
   C      -12.04647        10.98185        -2.77788
   S      -12.00243         9.26600        -2.84651
   C      -10.41332         9.28867        -2.15042
   C      -10.85528        13.01368        -2.19110
   C      -11.92322        13.75649        -1.81918
   C      -11.93692        15.16795        -1.75436
   C      -13.02137        15.89302        -1.34553
   C      -13.12832        17.30477        -1.23479
   C      -14.33694        17.74425        -0.79453
   C      -15.26711        16.71104        -0.52947
   S      -14.54386        15.14958        -0.86367
   C      -16.56446        16.81776        -0.08197
   C      -17.27424        17.99127         0.27362
   C      -18.54886        17.75424         0.67281
   C      -18.93179        16.37971         0.67193
   S      -17.57735        15.40439         0.13839
   C      -20.19455        15.94509         0.94965
   C      -20.77270        14.63864         0.92478
   C      -20.09073        13.42460         1.08414
   O      -18.79071        13.56416         1.43879
   C      -17.87016        12.49775         1.49982
   C      -20.77820        12.17235         0.95541
   O      -20.01537        11.04614         1.08383
   C      -20.63227         9.78883         0.95125
   C      -22.13228        12.11921         0.72382
   C      -22.85556        13.31528         0.63005
   C      -22.18138        14.57606         0.73796
   N      -23.01645        15.60252         0.61985
   S      -24.51099        15.02959         0.40373
   N      -24.16587        13.45383         0.44125
   H       -2.56177        11.42648         3.16207
   H        1.50141         9.61522         5.46432
   H       -1.63738        13.92219         4.04909
   H       -1.10338         5.31398         3.19865
   H       -1.37906         3.29241         2.72230
   H       -1.28243        -1.00078         2.08916
   H       -2.00968        -0.49771         0.54468
   H       -3.03710        -0.71889         1.99193
   H       -3.97558         0.78098         0.44219
   H       -5.34826         2.68759        -0.18918
   H       -6.35196         4.66630        -0.71508
   H       -6.29020         7.46445         0.48749
   H       -8.54217         4.93508        -1.23122
   H       -6.04106        10.67421        -0.82937
   H       -5.88214         8.94060        -0.77348
   H       -6.84285        10.81129         1.44616
   H       -5.47215         9.69711         1.47737
   H       -7.13106         9.08699         1.53930
   H       -7.43476        12.12081        -0.22629
   H       -8.95826        12.75918        -0.80281
   H       -6.51872        12.07471        -2.52927
   H       -7.11232        13.69244        -2.15018
   H       -8.05669        12.60868        -3.18235
   H      -12.91472        11.48744        -3.15299
   H       -9.94402        13.51498        -2.47719
   H      -12.83375        13.25652        -1.51329
   H      -11.04339        15.70836        -2.03780
   H      -12.30088        17.94561        -1.48491
   H      -14.59024        18.77995        -0.65320
   H      -16.82169        18.96612         0.23182
   H      -19.24377        18.51759         0.97636
   H      -20.92493        16.72562         1.12813
   H      -16.91072        12.97444         1.70135
   H      -17.81011        11.95749         0.55411
   H      -18.11207        11.80299         2.30570
   H      -21.38985         9.62879         1.72448
   H      -19.83102         9.06137         1.07377
   H      -21.08629         9.66555        -0.03655
   H      -22.66447        11.18948         0.62726
*
