# ORCA input file
# SCF done       -216.397553983536          0.000523782504
! CAM-B3LYP def2-SVP def2/J RIJCOSX Grid4 TightSCF
%maxcore 5000
%tddft
    Mode sTDDFT
    Ethresh 5.0
    maxcore 5000
end

%pal
  nprocs 6
  end
* xyz 0 1
   C       -8.66794        11.72412         5.39953
   C       -8.42479        12.68789         4.45678
   C       -8.03244        14.00900         4.75901
   N       -7.71888        15.09776         4.94283
   C       -8.51311        12.50027         3.06134
   N       -8.55706        12.42478         1.91618
   C       -8.52703        11.88936         6.83995
   C       -8.76821        10.64328         7.46865
   C       -8.70974        10.47618         8.83101
   C       -8.39800        11.59309         9.61250
   C       -8.16125        12.83572         8.97645
   C       -8.22041        13.00440         7.59923
   S       -7.79957        14.08450        10.12924
   C       -7.96560        12.93627        11.43115
   C       -8.27717        11.68199        11.02608
  Br       -7.71661        13.50260        13.20126
   C       -9.07327         9.62211         6.44712
   O       -9.31673         8.45353         6.65167
   C       -9.06466        10.34707         5.14893
   C       -9.54730         9.85759         3.97687
   C       -9.86771         8.48065         3.71170
   C       -9.00667         7.47980         4.07461
   S       -9.44423         5.92833         3.51764
   C      -10.88936         6.58509         2.80738
   C      -11.00056         7.97165         2.97068
   C      -12.15612         8.62854         2.48844
   C      -12.29064        10.10620         2.75405
   C      -11.78976        10.96390         1.58946
   C      -13.14336         7.91304         1.81612
   C      -14.28969         8.64342         1.16398
   C      -14.20216         8.55183        -0.36136
   C      -13.04381         6.50303         1.68549
   C      -13.94259         5.51438         1.11430
   C      -13.40689         4.25429         1.17809
   S      -11.87224         4.15097         1.91818
   C      -11.88892         5.86767         2.17436
   C      -15.27454         5.70465         0.60897
   C      -15.91693         4.83987        -0.21411
   C      -17.24471         4.97411        -0.68717
   S      -17.67306         4.08876        -2.11382
   C      -19.26056         4.79925        -2.20060
   C      -19.45719         5.67422        -1.10733
   C      -18.33438         5.75036        -0.23524
   C      -18.42798         6.49536         0.95505
   C      -19.57603         7.20422         1.22498
   O      -19.78243         7.95940         2.33435
   C      -18.76086         8.04004         3.29808
   C      -20.66208         7.17666         0.31840
   C      -20.61343         6.41589        -0.81301
   C      -20.14665         4.49892        -3.23195
   C      -19.88460         3.58491        -4.22914
   C      -20.73371         3.30446        -5.29008
   C      -20.43333         2.37897        -6.27518
   C      -21.16222         2.08144        -7.44114
   C      -20.56955         1.14830        -8.25005
   C      -19.35325         0.65746        -7.74377
   S      -18.97607         1.40539        -6.21721
   C      -18.47234        -0.25878        -8.30745
   C      -18.46682        -0.83855        -9.58546
   C      -17.35948        -1.60536        -9.82883
   C      -16.43787        -1.66115        -8.76083
   S      -17.05302        -0.74841        -7.41414
   C      -15.26489        -2.40858        -8.75477
   C      -14.30699        -2.55801        -7.76454
   C      -14.04888        -1.85982        -6.58947
   C      -14.32729        -0.53325        -6.15010
   C      -14.58702         0.56638        -6.94809
   C      -14.87579         1.84769        -6.45157
   N      -15.14899         2.90526        -6.09194
   C      -14.50271         0.52457        -8.35083
   N      -14.42275         0.52504        -9.49703
   C      -14.10052        -0.48041        -4.70517
   C      -13.49672        -1.69572        -4.30410
   C      -13.37424        -2.57956        -5.48855
   O      -12.86110        -3.67836        -5.53012
   C      -13.13766        -1.94822        -3.00486
   C      -13.40743        -0.95881        -2.05059
   C      -14.02504         0.24161        -2.46070
   C      -14.37449         0.50633        -3.78060
   S      -14.28413         1.31234        -1.11511
   C      -13.56554         0.14318        -0.03443
   C      -13.15274        -0.98709        -0.65013
  Br      -13.44050         0.52003         1.80346
   H       -8.89723         9.51272         9.27854
   H       -8.03702        13.97212         7.16331
   H       -8.41719        10.85268        11.69507
   H       -9.67144        10.54122         3.14918
   H       -8.07774         7.60032         4.59632
   H      -11.72300        10.34333         3.65663
   H      -13.32900        10.36052         2.97433
   H      -10.78158        10.68067         1.29613
   H      -11.78260        12.01517         1.86917
   H      -12.42986        10.84670         0.71948
   H      -14.27957         9.69544         1.43405
   H      -15.24154         8.24560         1.51735
   H      -13.26824         8.98974        -0.70585
   H      -15.02761         9.09463        -0.81669
   H      -14.23803         7.52133        -0.70343
   H      -13.88181         3.34972         0.85647
   H      -15.79126         6.59768         0.90521
   H      -15.37220         4.00338        -0.63169
   H      -17.62020         6.46284         1.66451
   H      -19.14636         8.68824         4.08305
   H      -17.84994         8.48214         2.88080
   H      -18.52805         7.05817         3.72231
   H      -21.53628         7.75501         0.57045
   H      -21.46260         6.37740        -1.47679
   H      -21.09317         5.02252        -3.24064
   H      -18.94094         3.05328        -4.19475
   H      -21.66792         3.84384        -5.37810
   H      -22.09460         2.57015        -7.66387
   H      -20.97768         0.80708        -9.18425
   H      -19.24998        -0.65993       -10.30001
   H      -17.16686        -2.11116       -10.75794
   H      -15.13754        -3.03237        -9.63125
   H      -13.67914        -3.43952        -7.86550
   H      -12.66897        -2.87899        -2.72648
   H      -14.84825         1.43692        -4.04549
   H      -12.68904        -1.81255        -0.14141
*
