# ORCA input file
# SCF done       -205.343655718601          0.000759140696
! CAM-B3LYP def2-SVP def2/J RIJCOSX Grid4 TightSCF
%maxcore 5000
%tddft
    Mode sTDDFT
    Ethresh 5.0
    maxcore 5000
end

%pal
  nprocs 6
  end
* xyz 0 1
   C       -7.62567        -1.59203        -0.68003
   C       -6.79515        -2.67770        -0.60150
   C       -7.19298        -4.00398        -0.87272
   N       -7.45440        -5.10132        -1.08453
   C       -5.43008        -2.62240        -0.25044
   N       -4.32052        -2.65061         0.04296
   C       -9.04526        -1.62246        -1.00398
   C       -9.55302        -0.29862        -1.00097
   C      -10.87331        -0.00902        -1.24358
   C      -11.73843        -1.07739        -1.50024
   C      -11.22226        -2.39623        -1.51191
   C       -9.88732        -2.68902        -1.26798
   S      -12.46242        -3.56434        -1.85527
   C      -13.64040        -2.28420        -1.97320
   C      -13.13390        -1.04498        -1.76771
  Br      -15.42625        -2.70470        -2.35894
   C       -8.45866         0.64464        -0.70690
   O       -8.48301         1.84850        -0.81101
   C       -7.26884        -0.20611        -0.41027
   C       -6.08017         0.30939        -0.02662
   C       -5.92815         1.70530         0.35713
   C       -5.06247         2.52568        -0.37702
   C       -4.95357         3.87688        -0.12675
   C       -5.68217         4.46798         0.90180
   C       -6.49017         3.66832         1.67469
   C       -6.61807         2.29517         1.41792
   N       -7.39363         1.71146         2.40462
   C       -7.70726         0.32183         2.57079
   C       -7.82559         2.64062         3.32061
   O       -8.45948         2.38757         4.31412
   C       -7.34550         4.00931         2.85507
   C       -8.57531         4.86058         2.46842
   C       -9.29550         4.19364         1.29096
   O       -9.83070         3.10997         1.29003
   N       -9.21867         5.04290         0.22576
   C       -9.71760         4.72405        -1.08310
   C       -8.57467         6.22431         0.55957
   C       -8.30432         7.31591        -0.23525
   C       -7.63924         8.41679         0.32959
   C       -7.27834         8.37568         1.68215
   C       -7.54958         7.26981         2.47124
   C       -8.19683         6.19148         1.90836
   C       -7.34645         9.54172        -0.52498
   C       -6.77963        10.70975        -0.15093
   C       -6.48940        11.77509        -1.03921
   S       -5.77261        13.25187        -0.42523
   C       -5.69312        14.01337        -1.99700
   C       -6.21328        13.13495        -2.95164
   C       -6.65373        11.89772        -2.40673
   S       -7.27188        10.89769        -3.68081
   C       -6.88907        12.20630        -4.80023
   N       -6.36879        13.25226        -4.29437
   C       -5.16877        15.30040        -2.16589
   C       -5.07239        15.91224        -3.39168
   C       -4.55000        17.18998        -3.58280
   C       -4.43643        17.79095        -4.82097
   C       -3.92356        19.07459        -5.10911
   C       -3.92926        19.39334        -6.43730
   C       -4.44723        18.37233        -7.25962
   S       -4.93315        16.99568        -6.30137
   C       -4.58768        18.35689        -8.63939
   C       -4.25436        19.35167        -9.58020
   C       -4.52036        18.99582       -10.86951
   C       -5.07955        17.70008       -11.01466
   S       -5.25398        16.95465        -9.43902
   C       -5.42344        17.11820       -12.21130
   C       -5.98053        15.84406       -12.42546
   S       -6.29851        15.30046       -14.07001
   C       -6.92405        13.77109       -13.59133
   C       -6.90183        13.65789       -12.22189
   C       -6.37415        14.82151       -11.57687
   O       -6.38063        14.66041       -10.23842
   C       -6.89356        13.42375       -10.01716
   N       -7.00362        13.01525        -8.67336
   O       -7.44131        11.89336        -8.46729
   O       -6.66063        13.79454        -7.80848
   C       -7.23082        12.76067       -11.16877
   H      -11.22940         1.00851        -1.21775
   H       -9.54396        -3.70986        -1.28457
   H      -13.71857        -0.14393        -1.80170
   H       -5.18180        -0.29448        -0.03479
   H       -4.50498         2.08214        -1.18863
   H       -4.29966         4.48216        -0.73506
   H       -5.60018         5.52607         1.09709
   H       -6.81511        -0.29254         2.43465
   H       -8.48091         0.00601         1.86587
   H       -8.08989         0.20357         3.58564
   H       -6.79855         4.52020         3.65163
   H       -9.23752         4.91728         3.33723
   H      -10.01903         3.67888        -1.06578
   H       -8.92882         4.85200        -1.82532
   H      -10.56971         5.35775        -1.33990
   H       -8.59262         7.33804        -1.27468
   H       -6.76867         9.21613         2.12445
   H       -7.25556         7.25599         3.51020
   H       -7.61603         9.41411        -1.56544
   H       -6.51229        10.89265         0.87977
   H       -7.10030        12.08660        -5.84398
   H       -4.82492        15.81369        -1.27733
   H       -5.41941        15.36759        -4.26029
   H       -4.20777        17.75151        -2.72244
   H       -3.56527        19.72503        -4.33038
   H       -3.57650        20.32639        -6.83898
   H       -3.83047        20.29600        -9.28861
   H       -4.33318        19.62142       -11.72440
   H       -5.24290        17.70169       -13.10420
   H       -7.25990        13.07262       -14.32811
   H       -7.65161        11.77895       -11.23314
*
