# ORCA input file
# SCF done       -181.368253101418          0.000929366935
! CAM-B3LYP def2-SVP def2/J RIJCOSX Grid4 TightSCF
%maxcore 5000
%tddft
    Mode sTDDFT
    Ethresh 5.0
    maxcore 5000
end

%pal
  nprocs 6
  end
* xyz 0 1
   C       -8.31279         2.66868         0.24060
   C       -8.84051         2.21632        -0.94440
   C      -10.21278         2.08237        -1.18965
   N      -11.32499         1.90673        -1.43126
   C       -8.07902         1.71760        -2.02211
   N       -7.52714         1.30588        -2.94091
   C       -9.06470         3.16273         1.38923
   C       -8.16115         3.37803         2.45755
   C       -8.55075         3.91453         3.65877
   C       -9.89595         4.27127         3.80736
   C      -10.79251         4.04341         2.73890
   C      -10.40127         3.48133         1.52865
   S      -12.39408         4.61187         3.11638
   C      -11.83686         5.14300         4.68305
   C      -10.52744         4.89866         4.91850
  Br      -13.03361         5.99760         5.84544
   C       -6.79286         3.00307         2.03141
   O       -5.78364         3.07282         2.70045
   C       -6.91864         2.64803         0.60096
   C       -5.86149         2.56188        -0.27471
   C       -4.51526         2.32533         0.04515
   S       -3.29802         3.03405        -0.98751
   C       -2.05913         2.37449        -0.00970
   C       -2.51105         1.60100         1.01589
   C       -1.56249         0.94263         1.96192
   C       -3.93872         1.53169         1.05519
   C       -4.76382         0.68017         1.84494
   C       -4.41454        -0.20403         2.81042
   C       -5.38614        -1.02092         3.45043
   C       -5.07403        -2.08235         4.22490
   N       -6.02728        -2.85886         4.81627
   C       -5.85296        -4.09525         5.39451
   C       -4.65214        -4.69266         5.66337
   S       -4.82295        -6.21287         6.44417
   C       -6.52951        -6.07846         6.40920
   C       -6.95387        -4.92128         5.82106
   N       -8.30023        -4.59328         5.71785
   C       -8.88265        -3.82205         4.75684
   C      -10.11805        -3.29142         4.89609
   C      -10.74883        -2.38253         3.99497
   S      -11.94433        -1.29926         4.63641
   C      -12.08663        -0.44782         3.12409
   C      -11.27151        -1.02584         2.16255
   C      -10.50834        -2.10502         2.65384
   O       -9.69078        -2.81181         1.84555
   C      -11.06875        -0.42441         0.81708
   O       -9.98011        -0.24360         0.33648
   O      -12.20931        -0.06998         0.24283
   C      -12.96137         0.65718         2.98848
   C      -13.33427         1.52217         3.96953
   C      -12.74608         1.82277         5.25647
   C      -11.41406         1.74897         5.57980
   C      -10.87563         2.24908         6.78157
   N      -10.38016         2.65060         7.73655
   C      -10.40202         1.27289         4.72305
   N       -9.51672         0.93937         4.07107
   C      -13.75321         2.52928         6.03782
   C      -14.83068         2.87622         5.18323
   C      -14.57654         2.33310         3.83297
   O      -15.24572         2.47185         2.83702
   C      -15.90871         3.60622         5.61966
   C      -15.93036         3.99834         6.96251
   C      -14.86233         3.62295         7.81247
   C      -13.76704         2.89189         7.37044
   S      -15.09563         4.20857         9.42898
   C      -16.60007         4.94556         8.94938
   C      -16.91607         4.76052         7.64577
  Br      -17.61382         5.88309        10.21555
   H       -7.84074         4.07056         4.45551
   H      -11.11917         3.34234         0.73661
   H      -10.02165         5.15480         5.83187
   H       -6.05909         2.76570        -1.32125
   H       -1.03577         2.59595        -0.24583
   H       -0.54561         1.26219         1.74490
   H       -1.60910        -0.14114         1.86079
   H       -1.80094         1.21467         2.98835
   H       -5.81378         0.70815         1.58610
   H       -3.39297        -0.33817         3.12381
   H       -6.42742        -0.78364         3.27311
   H       -4.05028        -2.38525         4.38100
   H       -6.96804        -2.49144         4.78818
   H       -3.66833        -4.32169         5.46660
   H       -7.13781        -6.85603         6.82513
   H       -8.90068        -4.93781         6.45346
   H       -8.27967        -3.65124         3.87684
   H      -10.64736        -3.45892         5.82504
   H       -9.47471        -3.66311         2.24480
   H      -12.05093         0.45993        -0.57684
   H      -13.43847         0.78529         2.02320
   H      -16.70676         3.87419         4.94561
   H      -12.97505         2.62688         8.05131
   H      -17.80519         5.14741         7.18268
*
