# ORCA input file
# SCF done       -141.187016681700          0.000678310531
! CAM-B3LYP def2-SVP def2/J RIJCOSX Grid4 TightSCF
%maxcore 5000
%tddft
    Mode sTDDFT
    Ethresh 5.0
    maxcore 5000
end

%pal
  nprocs 6
  end
* xyz 0 1
   C       12.46834        -1.10852        -7.77764
   C       12.05232        -1.78478        -6.69813
   C       11.14152        -2.89293        -6.65327
   C       10.90929        -3.37484        -5.41246
   C       11.61148        -2.69617        -4.37727
   S       12.58667        -1.40570        -5.05265
   C       11.58027        -2.96499        -3.03001
   C       10.84586        -3.97443        -2.35874
   C       11.03761        -3.99063        -1.01467
   C       11.93558        -2.99943        -0.53439
   S       12.51839        -2.03153        -1.87658
   C       12.31782        -2.84787         0.77315
   C       13.18409        -1.88159         1.31009
   S       13.65139        -0.46994         0.39595
   C       14.43710         0.20401         1.77050
   C       14.37037        -0.58567         2.87153
   C       14.99535        -0.22740         4.17955
   C       13.67878        -1.81381         2.62352
   C       13.60293        -2.83041         3.62088
   C       13.47270        -4.16714         3.42198
   C       13.47100        -5.15176         4.44711
   C       13.40423        -4.92451         5.78526
   C       13.47795        -5.93134         6.78141
   S       12.63314        -5.68848         8.27663
   C       12.99881        -7.27719         8.87258
   C       13.76867        -7.97480         7.93378
   C       14.09265        -7.18961         6.77362
   C       15.05239        -7.68578         5.85186
   C       15.67726        -6.87931         4.87525
   N       16.29809        -6.29237         4.10881
   C       15.52376        -8.98092         5.97833
   C       15.09077        -9.79872         7.01963
   C       14.25410        -9.31122         8.00850
   C       13.92590       -10.21320         9.04106
   N       13.70366       -11.02092         9.82772
   C       12.62304        -7.73792        10.16571
   C       11.95131        -7.09240        11.13748
   C       11.37783        -5.71892        11.01377
   C       11.77296        -7.77274        12.47445
   N       10.39720        -7.82886        12.89332
   C        9.86277        -7.05080        13.85826
   C        8.54326        -6.99891        14.17470
   C        8.04362        -6.21842        15.23573
   C        6.73564        -6.17157        15.62880
   C        6.18986        -5.41259        16.69553
   C        4.85443        -5.57561        16.87951
   C        4.24971        -6.47797        15.96728
   S        5.45195        -7.10550        14.85633
   C        2.93102        -6.85678        15.91025
   C        1.87037        -6.42953        16.75392
   C        0.66929        -6.98090        16.46879
   C        0.68270        -7.89764        15.36590
   S        2.32826        -8.00214        14.72028
   C       -0.34766        -8.59117        14.86176
   H       12.11898        -1.37359        -8.75996
   H       13.15825        -0.28849        -7.69986
   H       10.70241        -3.27841        -7.55643
   H       10.25572        -4.20121        -5.19547
   H       10.20400        -4.65652        -2.88709
   H       10.56806        -4.68618        -0.34093
   H       11.88140        -3.54147         1.47925
   H       14.91527         1.15945         1.67769
   H       15.48109         0.74244         4.10969
   H       15.73892        -0.97167         4.46198
   H       14.24109        -0.18108         4.96489
   H       13.74970        -2.48006         4.63322
   H       13.45173        -4.55031         2.41236
   H       13.51263        -6.17725         4.10510
   H       13.20234        -3.92660         6.15068
   H       16.24908        -9.35250         5.27031
   H       15.44439       -10.81700         7.08298
   H       12.97537        -8.73471        10.38924
   H       10.80747        -5.45749        11.90183
   H       10.72030        -5.64583        10.14725
   H       12.17127        -4.98178        10.88146
   H       12.33159        -7.21924        13.23713
   H       12.17676        -8.79001        12.42772
   H        9.76265        -8.34486        12.30270
   H       10.57840        -6.47215        14.42875
   H        7.83359        -7.58797        13.60984
   H        8.74825        -5.61446        15.79382
   H        6.81246        -4.77074        17.29491
   H        4.28348        -5.07868        17.64342
   H        2.03853        -5.72410        17.54885
   H       -0.24340        -6.77718        17.00060
   H       -1.33166        -8.49662        15.28589
   H       -0.22775        -9.25646        14.02677
*
