# ORCA input file
# SCF done       -142.544827083845          0.000845430813
! CAM-B3LYP def2-SVP def2/J RIJCOSX Grid4 TightSCF
%maxcore 5000
%tddft
    Mode sTDDFT
    Ethresh 5.0
    maxcore 5000
end

%pal
  nprocs 6
  end
* xyz 0 1
   C       16.07772        -5.63062         1.50210
   C       15.04660        -4.83586         1.18595
   C       14.85783        -3.45823         1.53857
   C       13.68522        -2.93010         1.12598
   C       12.84802        -3.84046         0.42115
   S       13.64875        -5.39094         0.25254
   C       11.56637        -3.62940        -0.02155
   C       10.75674        -2.47507         0.13998
   C        9.47137        -2.64934        -0.25905
   C        9.16815        -3.95914        -0.72981
   S       10.64196        -4.90865        -0.79074
   C        7.91091        -4.39721        -1.05176
   C        7.42917        -5.68815        -1.36945
   S        6.01149        -5.71771        -2.40721
   C        6.06624        -7.43260        -2.50711
   C        7.07425        -7.97407        -1.78041
   C        7.32017        -9.44338        -1.68176
   C        7.84681        -6.99173        -1.07815
   C        8.84700        -7.37919        -0.13293
   C        9.24658        -6.63767         0.92818
   C       10.38201        -6.93617         1.72555
   C       10.91715        -6.02495         2.57553
   C       12.16971        -6.14846         3.22485
   S       13.02105        -7.66346         3.22692
   C       14.32683        -6.96097         4.09312
   C       14.14523        -5.64687         4.38420
   C       15.19255        -4.85438         5.09358
   C       12.89880        -5.15001         3.88295
   C       12.43340        -3.79712         3.91097
   C       12.84803        -2.76881         4.68782
   C       12.32668        -1.45711         4.53677
   C       12.71174        -0.40171         5.29543
   C       12.20272         0.91498         5.16449
   S       10.79289         1.21748         4.17958
   C       10.73949         2.85982         4.69263
   C       11.72703         3.17847         5.56389
   C       11.90357         4.53947         6.15170
   C       12.60399         2.07511         5.82772
   C       13.75956         2.21834         6.65878
   C       14.91348         1.50856         6.57298
   C       16.01187         1.69946         7.44140
   C       17.16792         0.97891         7.35611
   C       18.26757         1.14397         8.21134
   C       19.41568         0.39639         8.15013
   C       20.56122         0.51875         8.97607
   C       21.55588        -0.36405         8.69487
   C       21.25947        -1.24592         7.62586
   S       19.66296        -0.90192         6.98790
   C       22.05031        -2.24580         7.11312
   C       23.35353        -2.62273         7.53915
   C       23.89313        -3.65052         6.84675
   C       23.05261        -4.17360         5.80840
   S       21.53331        -3.26390         5.78047
   C       23.31798        -5.18249         4.96664
   H       16.90415        -5.25415         2.07843
   H       16.11305        -6.65879         1.19275
   H       15.60965        -2.92599         2.09411
   H       13.37682        -1.91717         1.31587
   H       11.14140        -1.56662         0.56812
   H        8.70512        -1.89728        -0.18456
   H        7.16420        -3.61370        -1.13384
   H        5.33504        -7.94468        -3.10172
   H        6.60001        -9.98711        -2.28794
   H        7.23035        -9.77583        -0.64833
   H        8.32324        -9.68548        -2.03150
   H        9.31329        -8.34140        -0.29737
   H        8.71791        -5.72168         1.15791
   H       10.90027        -7.86863         1.54498
   H       10.38654        -5.09271         2.71907
   H       15.17469        -7.56992         4.33922
   H       16.11264        -5.43133         5.15468
   H       14.87628        -4.61304         6.10804
   H       15.39422        -3.92758         4.56041
   H       11.64565        -3.57181         3.20276
   H       13.58361        -2.90750         5.46333
   H       11.59432        -1.29985         3.75358
   H       13.43657        -0.55872         6.08234
   H        9.96866         3.49902         4.30862
   H       11.14252         5.21578         5.77076
   H       12.88563         4.93883         5.90097
   H       11.81906         4.49919         7.23771
   H       13.71009         3.01370         7.39240
   H       15.03892         0.77644         5.78745
   H       15.91565         2.44760         8.21869
   H       17.25611         0.22131         6.58651
   H       18.21386         1.90893         8.97583
   H       20.60971         1.26262         9.75329
   H       22.49220        -0.40820         9.22223
   H       23.84542        -2.11425         8.34941
   H       24.86667        -4.07085         7.02722
   H       24.25488        -5.70846         5.01906
   H       22.61272        -5.49680         4.21919
*
