# ORCA input file
# SCF done       -160.573593420588          0.000890765880
! CAM-B3LYP def2-SVP def2/J RIJCOSX Grid4 TightSCF
%maxcore 5000
%tddft
    Mode sTDDFT
    Ethresh 5.0
    maxcore 5000
end

%pal
  nprocs 6
  end
* xyz 0 1
   C        6.50506         2.68023        -5.22091
   C        7.23042         1.91843        -4.39095
   C        8.62539         2.04364        -4.07745
   C        9.08537         1.12631        -3.19878
   C        8.10260         0.20337        -2.74260
   S        6.55367         0.55215        -3.48936
   C        8.27492        -0.82680        -1.85177
   C        9.46532        -1.20512        -1.17946
   C        9.31491        -2.26987        -0.35257
   C        7.99860        -2.80700        -0.31363
   S        6.95517        -1.88909        -1.38842
   C        7.60317        -3.86036         0.46384
   C        6.33355        -4.46344         0.53103
   S        5.09015        -4.13605        -0.65007
   C        4.08959        -5.36752         0.01384
   C        4.64749        -6.00094         1.07842
   C        3.97448        -7.09579         1.83872
   C        5.93019        -5.47356         1.41306
   C        6.66683        -5.92905         2.55658
   C        7.50309        -5.18603         3.31379
   C        8.21697        -5.70167         4.43520
   C        9.04692        -4.94568         5.18354
   C        9.82757        -5.36577         6.32155
   C       10.73550        -4.45173         6.88164
   C       11.49917        -4.81655         7.96193
   C       11.37873        -6.10023         8.51809
   C       10.48532        -7.01432         7.97769
   C        9.72285        -6.64291         6.88965
   C       12.27544        -6.19612         9.64974
   C       12.95385        -4.97202         9.79090
   C       12.56537        -4.01898         8.68390
   C       12.03196        -2.68423         9.22230
   C       10.81184        -2.86848        10.11759
   C       13.72498        -3.80904         7.68155
   C       14.99856        -3.20089         8.25361
   C       13.81273        -4.77550        10.84444
   C       14.04216        -5.81463        11.75713
   C       13.40246        -7.04530        11.57302
   C       12.51004        -7.23582        10.53606
   C       14.96585        -5.61285        12.85233
   S       16.35079        -4.59092        12.62710
   C       16.91070        -4.94982        14.21179
   C       16.10252        -5.80610        14.88677
   C       16.36965        -6.22305        16.29530
   C       14.96214        -6.19443        14.10988
   C       13.85448        -6.98880        14.57416
   C       13.90539        -8.02668        15.43955
   C       12.75050        -8.74431        15.84199
   C       12.78206        -9.85261        16.63239
   C       11.63600       -10.57138        17.01520
   C       11.64639       -11.71538        17.76735
   C       10.52118       -12.47937        18.17187
   C       10.82315       -13.58640        18.89826
   C       12.21177       -13.77182        19.11834
   S       13.11854       -12.47233        18.36701
   C       12.82649       -14.79435        19.79877
   C       12.20567       -15.90412        20.43663
   C       13.06630       -16.76447        21.02439
   C       14.44890       -16.40031        20.89972
   S       14.56939       -14.89111        19.98090
   C       15.51686       -17.05593        21.37507
   H        6.95838         3.49874        -5.75178
   H        5.45962         2.49751        -5.38762
   H        9.22072         2.81839        -4.52751
   H       10.10323         1.07424        -2.85405
   H       10.39160        -0.67910        -1.32715
   H       10.10475        -2.69851         0.23979
   H        8.36789        -4.30570         1.08717
   H        3.12918        -5.55045        -0.42709
   H        2.99021        -7.29391         1.42259
   H        3.86399        -6.81919         2.88646
   H        4.56316        -8.01160         1.78885
   H        6.47966        -6.95367         2.85460
   H        7.63012        -4.13304         3.10187
   H        8.07551        -6.75066         4.65666
   H        9.16627        -3.90429         4.90605
   H       10.82235        -3.46379         6.45106
   H       10.38602        -8.00254         8.40230
   H        9.02482        -7.35257         6.47291
   H       11.77025        -2.04205         8.37843
   H       12.81882        -2.18742         9.79138
   H        9.99974        -3.34040         9.56884
   H       10.46550        -1.90524        10.48564
   H       11.05687        -3.49602        10.97172
   H       13.35435        -3.17081         6.87594
   H       13.96776        -4.78166         7.24502
   H       14.80637        -2.23492         8.71311
   H       15.71856        -3.05458         7.45095
   H       15.44660        -3.86025         8.99177
   H       14.30394        -3.82680        11.00227
   H       13.62803        -7.86180        12.24229
   H       12.00994        -8.18553        10.41696
   H       17.81608        -4.49207        14.55953
   H       17.06184        -5.52780        16.76498
   H       16.81766        -7.21620        16.32517
   H       15.44440        -6.24665        16.86750
   H       12.89112        -6.71871        14.15584
   H       14.85344        -8.37670        15.82044
   H       11.79425        -8.38568        15.48076
   H       13.73620       -10.22306        16.98700
   H       10.67175       -10.20306        16.68814
   H        9.52237       -12.17931        17.90646
   H       10.09276       -14.27591        19.28235
   H       11.13625       -16.02462        20.43299
   H       12.78054       -17.65845        21.55001
   H       15.39767       -17.97212        21.92599
   H       16.51705       -16.69381        21.22266
*
