# ORCA input file
# SCF done       -183.078558877121          0.000444716124
! CAM-B3LYP def2-SVP def2/J RIJCOSX Grid4 TightSCF
%maxcore 5000
%tddft
    Mode sTDDFT
    Ethresh 5.0
    maxcore 5000
end

%pal
  nprocs 6
  end
* xyz 0 1
   C       13.57578       -14.50732        -9.49110
   C       13.74766       -13.70131        -8.43515
   C       14.96359       -13.07533        -7.99786
   C       14.83159       -12.31491        -6.89001
   C       13.50941       -12.27308        -6.35979
   S       12.43283       -13.24775        -7.33802
   C       13.08308       -11.59706        -5.24269
   C       13.86005       -10.78891        -4.37216
   C       13.15888       -10.27878        -3.33126
   C       11.77875       -10.64140        -3.30860
   S       11.41937       -11.65160        -4.69501
   C       10.93662       -10.31733        -2.28109
   C        9.56554       -10.62350        -2.06889
   C        8.58006       -10.91662        -3.01358
   F        8.85809       -10.82496        -4.32931
   C        7.26621       -11.25548        -2.67651
   F        6.42268       -11.51938        -3.69455
   C        6.78710       -11.35031        -1.37089
   C        7.74822       -10.99599        -0.38944
   C        9.08036       -10.63152        -0.73268
   N        9.72923       -10.36021         0.40838
   N        8.83461       -10.54451         1.33964
   C        9.13005       -10.35867         2.73271
   C        8.81743       -11.62644         3.51879
   N        7.65095       -10.91815         0.94335
   C        5.46217       -11.79093        -1.06548
   C        5.06522       -12.05688         0.20107
   C        3.80296       -12.55905         0.59901
   O        2.74265       -12.70327        -0.24326
   C        3.42621       -13.00967         1.85062
   C        3.89259       -13.21189         3.22044
   O        4.95327       -12.97722         3.74525
   N        2.78832       -13.77118         3.85907
   C        1.65766       -13.95042         3.05611
   O        0.61333       -14.41110         3.43709
   C        2.08618       -13.45505         1.74767
   C        1.69194       -13.24309         0.43881
   C        0.43729       -13.48527        -0.17919
   C        0.12975       -13.06267        -1.42819
   C       -1.11592       -13.23489        -2.10808
   C       -2.17017       -14.06942        -1.73870
   F       -2.06107       -14.85000        -0.64818
   C       -3.36823       -14.18084        -2.45219
   F       -4.27159       -15.04573        -1.94938
   C       -3.66013       -13.45734        -3.61152
   C       -2.60087       -12.59753        -4.00778
   C       -1.37376       -12.50067        -3.29332
   N       -0.60852       -11.60726        -3.93365
   N       -1.34062       -11.21854        -4.94147
   C       -0.85136       -10.27484        -5.90523
   C       -0.28054       -10.99986        -7.12027
   N       -2.52354       -11.75893        -5.04918
   C       -4.85120       -13.49828        -4.38662
   C       -5.94114       -14.29664        -4.19497
   C       -7.07165       -14.25016        -5.02527
   C       -8.17258       -15.05660        -4.87592
   C       -9.34498       -15.05145        -5.67514
   C      -10.28059       -15.96496        -5.30479
   C       -9.90373       -16.75215        -4.18827
   S       -8.31190       -16.28055        -3.62557
   C      -10.62246       -17.75595        -3.58163
   C      -11.91725       -18.22905        -3.93722
   C      -12.37701       -19.23215        -3.15742
   C      -11.47433       -19.63483        -2.11682
   S      -10.00768       -18.64625        -2.20516
   C      -11.65471       -20.59416        -1.19882
   H       14.40269       -14.75784       -10.13198
   H       12.61627       -14.92719        -9.73114
   H       15.88247       -13.22614        -8.53624
   H       15.63822       -11.77665        -6.42472
   H       14.90778       -10.61542        -4.54021
   H       13.57603        -9.65096        -2.56370
   H       11.39717        -9.81988        -1.43623
   H        8.52243        -9.52968         3.10815
   H       10.18692       -10.09329         2.79531
   H        7.76613       -11.88369         3.41621
   H        9.03798       -11.46896         4.57047
   H        9.41888       -12.45651         3.15618
   H        4.79059       -11.95099        -1.89759
   H        5.76200       -11.92124         1.01528
   H        2.79865       -14.02830         4.83554
   H       -0.27101       -14.00576         0.44642
   H        0.86337       -12.49485        -1.98498
   H       -0.07918        -9.68193        -5.41239
   H       -1.68648        -9.63631        -6.20092
   H        0.54502       -11.64128        -6.82198
   H        0.08252       -10.27623        -7.84429
   H       -1.05029       -11.60957        -7.58687
   H       -4.85358       -12.80829        -5.22082
   H       -5.96786       -15.00877        -3.38312
   H       -7.08498       -13.53580        -5.83863
   H       -9.45437       -14.36765        -6.49875
   H      -11.22635       -16.09698        -5.79926
   H      -12.46155       -17.80422        -4.76201
   H      -13.33135       -19.71466        -3.27287
   H      -12.56144       -21.17265        -1.17892
   H      -10.90740       -20.81555        -0.45916
*
