# ORCA input file
# SCF done       -173.838445862899          0.000704657793
! CAM-B3LYP def2-SVP def2/J RIJCOSX Grid4 TightSCF
%maxcore 5000
%tddft
    Mode sTDDFT
    Ethresh 5.0
    maxcore 5000
end

%pal
  nprocs 6
  end
* xyz 0 1
   C        0.99555       -15.09525        -0.38966
   C        1.13959       -14.56472         0.82933
   C        0.74393       -15.12745         2.08999
   C        1.00949       -14.34904         3.16043
   C        1.63252       -13.10557         2.84822
   S        1.88945       -12.98448         1.11484
   C        1.96804       -12.09671         3.71231
   C        1.74490       -12.04643         5.11616
   C        2.11558       -10.88210         5.69650
   C        2.67251        -9.91996         4.79857
   S        2.71760       -10.60118         3.16853
   C        3.05637        -8.65655         5.10906
   C        3.54015        -7.66108         4.17346
   C        4.48529        -7.87438         3.15741
   N        5.33119        -8.94441         2.93257
   C        5.82681        -9.80839         3.97934
   C        7.14640        -9.28699         4.55902
   C        7.71314       -10.26285         5.58007
   C        6.04310        -8.68912         1.77334
   C        5.66808        -7.42843         1.25498
   C        4.68398        -6.89703         2.15396
   C        4.02437        -5.67769         2.19444
   C        3.18247        -5.42390         3.26085
   C        2.95335        -6.39271         4.22474
   C        6.25948        -6.92071         0.10701
   C        7.23293        -7.67271        -0.51941
   C        7.58973        -8.92134        -0.02566
   C        6.99726        -9.46808         1.10784
   C        7.39837       -10.81162         1.52915
   N        6.54756       -11.87439         1.53547
   C        5.20954       -11.81830         1.00411
   C        5.16682       -12.29251        -0.44595
   C        7.22358       -12.98427         1.98823
   C        8.53063       -12.58588         2.27389
   C        8.64076       -11.23391         1.97207
   C        6.70925       -14.29922         2.17841
   S        7.78730       -15.44208         2.98304
   C        5.50094       -14.89266         1.84647
   C        5.44552       -16.23286         2.22476
   C        4.49964       -17.33376         2.12992
   S        2.99453       -17.28955         1.49131
   C        6.61654       -16.68588         2.85540
   C        6.46321       -18.05239         3.16541
   S        7.33941       -19.32007         3.87848
   C        5.18007       -18.46930         2.72336
   C        4.93151       -19.81109         2.94889
   C        6.00171       -20.45368         3.56592
   C        6.21194       -21.77285         3.98631
   C        5.48161       -22.91983         3.78265
   C        5.86326       -24.21155         4.32110
   C        6.77013       -24.45802         5.32228
   C        7.07719       -25.74593         5.80664
   N        7.37071       -26.76641         6.24427
   C        7.48827       -23.48375         6.04592
   N        8.09614       -22.76025         6.69957
   C        5.04930       -25.22926         3.66456
   C        4.11374       -24.58010         2.82573
   C        4.31262       -23.11767         2.90294
   O        3.63474       -22.28929         2.32852
   C        3.19471       -25.26337         2.06830
   C        3.20515       -26.66061         2.13582
   C        4.14863       -27.30224         2.97176
   C        5.07396       -26.60898         3.74291
   S        3.99505       -29.03219         2.89811
   C        2.68263       -28.87038         1.76161
   C        2.37339       -27.58937         1.45176
  Br        1.84578       -30.40896         1.08932
   H        0.54308       -16.06289        -0.51163
   H        1.33603       -14.58874        -1.27439
   H        0.27186       -16.09230         2.13038
   H        0.77804       -14.61683         4.17615
   H        1.30172       -12.87142         5.64462
   H        2.00826       -10.65955         6.74382
   H        2.85219        -8.31464         6.11644
   H        5.96581       -10.81907         3.59342
   H        5.08551        -9.85011         4.77609
   H        6.96947        -8.31500         5.02575
   H        7.86672        -9.14457         3.75181
   H        7.00693       -10.42323         6.39191
   H        8.63823        -9.87746         6.00043
   H        7.92292       -11.22142         5.10994
   H        4.18186        -4.94293         1.42030
   H        2.67794        -4.47266         3.33732
   H        2.25202        -6.18865         5.02104
   H        5.96459        -5.95761        -0.27981
   H        7.71705        -7.29878        -1.40871
   H        8.33840        -9.50457        -0.54170
   H        4.86369       -10.78454         1.05103
   H        4.54661       -12.41349         1.63301
   H        5.74962       -11.62191        -1.07316
   H        4.13855       -12.29457        -0.79559
   H        5.57438       -13.29607        -0.54241
   H        9.30467       -13.22327         2.65464
   H        9.51133       -10.61772         2.07806
   H        4.69207       -14.40879         1.33478
   H        4.02831       -20.32644         2.67630
   H        7.13643       -21.89913         4.53826
   H        2.49279       -24.73698         1.44065
   H        5.77442       -27.14566         4.36032
   H        1.59276       -27.30839         0.76858
*
