# ORCA input file
# SCF done       -181.360919570327          0.000581950385
! CAM-B3LYP def2-SVP def2/J RIJCOSX Grid4 TightSCF
%maxcore 5000
%tddft
    Mode sTDDFT
    Ethresh 5.0
    maxcore 5000
end

%pal
  nprocs 6
  end
* xyz 0 1
   C       -9.95992         5.33665        -1.02085
   C      -10.74480         6.18629        -1.78462
   C      -10.45930         6.29062        -3.13121
   C       -9.41783         5.55509        -3.70885
   C       -9.36783         5.89651        -5.15597
   O       -8.63144         5.49443        -6.01697
   N      -10.39065         6.81579        -5.35063
   C      -11.09243         7.11041        -4.19257
   O      -12.02069         7.87525        -4.11774
   C      -10.66015         7.44231        -6.62757
   C       -9.86615         8.73422        -6.78544
   C       -8.63607         4.70284        -2.96522
   C       -8.91440         4.60126        -1.59074
   C       -8.10151         3.74767        -0.75811
   O       -8.32781         3.70684         0.58421
   C       -7.04301         2.91670        -1.04413
   C       -6.18109         2.38973        -2.11169
   O       -6.17933         2.59286        -3.29775
   N       -5.29933         1.55064        -1.44188
   C       -5.47938         1.46856        -0.05941
   O       -4.81188         0.80166         0.68677
   C       -6.61452         2.35602         0.18914
   C       -7.42986         2.87186         1.17339
   C       -7.40827         2.67632         2.58394
   C       -8.29603         3.24169         3.42590
   C       -8.21308         3.16016         4.86456
   C       -6.98077         3.10499         5.45725
   S       -6.99836         3.18610         7.16491
   C       -8.73349         3.26555         7.13786
   C       -9.27869         3.22740         5.84489
   C      -10.69113         3.22983         5.70366
   C      -11.29003         3.04631         4.33229
   C      -11.02026         1.63886         3.79494
   C      -11.50672         3.34129         6.82461
   C      -13.00589         3.44152         6.70708
   C      -13.67594         2.06648         6.65156
   C      -10.94096         3.38794         8.12210
   C      -11.56498         3.52442         9.41962
   C      -10.63810         3.62708        10.41670
   S       -9.00548         3.51202         9.89758
   C       -9.54559         3.36142         8.25446
   C      -12.97485         3.50257         9.74315
   C      -13.53347         4.32935        10.65757
   C      -14.88740         4.33593        11.07831
   C      -15.88502         3.43877        10.80946
   C      -17.22015         3.54538        11.29014
   C      -18.03450         2.51476        10.94531
   C      -17.39836         1.51612        10.16955
   S      -15.73083         1.95683         9.87395
   C      -17.93057         0.33540         9.70102
   C      -19.24851        -0.15224         9.86649
   C      -19.45386        -1.38018         9.32286
   C      -18.30935        -1.94231         8.69589
   S      -16.96247        -0.82347         8.80414
   C      -18.24377        -3.17822         8.11455
   C      -17.12451        -3.78213         7.51349
   S      -15.54192        -3.04404         7.33195
   C      -14.85055        -4.41634         6.56091
   C      -15.78048        -5.42129         6.43516
   C      -17.05181        -5.05343         6.97061
   O      -17.94253        -6.05895         6.83757
   C      -17.25637        -7.06161         6.22500
   N      -17.95191        -8.26365         5.95651
   O      -17.31811        -9.14425         5.40491
   O      -19.11439        -8.33684         6.29220
   C      -15.95148        -6.74817         5.95320
   H      -10.14832         5.23482         0.03682
   H      -11.55076         6.75364        -1.34610
   H      -11.73257         7.64637        -6.67298
   H      -10.38275         6.72744        -7.40577
   H      -10.13730         9.43982        -6.00343
   H      -10.08123         9.18256        -7.75113
   H       -8.79986         8.52911        -6.72426
   H       -7.83658         4.13735        -3.41902
   H       -4.57415         1.03836        -1.92383
   H       -6.62058         2.02671         2.93472
   H       -9.08354         3.84309         2.99884
   H       -6.03429         3.08138         4.95353
   H      -12.36639         3.19150         4.36050
   H      -10.89240         3.79295         3.64537
   H      -11.43051         0.89496         4.47417
   H       -9.95545         1.45034         3.68930
   H      -11.48940         1.51455         2.82133
   H      -13.28329         4.01889         5.82409
   H      -13.38169         3.99606         7.56753
   H      -13.43634         1.55593         5.72278
   H      -14.75647         2.16967         6.71838
   H      -13.33993         1.43804         7.47305
   H      -10.84073         3.70883        11.46685
   H      -13.57652         2.75478         9.25356
   H      -12.91137         5.10148        11.09274
   H      -15.17666         5.16187        11.71649
   H      -17.52741         4.38758        11.88515
   H      -19.06697         2.43556        11.23426
   H      -20.00150         0.41427        10.38418
   H      -20.38690        -1.91419         9.35394
   H      -19.14077        -3.78347         8.12052
   H      -13.82493        -4.39920         6.25740
   H      -15.23669        -7.38782         5.47874
*
