# ORCA input file
# SCF done       -229.608678396991          0.000421873260
! CAM-B3LYP def2-SVP def2/J RIJCOSX Grid4 TightSCF
%maxcore 5000
%tddft
    Mode sTDDFT
    Ethresh 5.0
    maxcore 5000
end

%pal
  nprocs 6
  end
* xyz 0 1
   C       -5.75275        -2.54127        -1.27514
   C       -4.46400        -2.98975        -1.38165
   C       -4.10912        -4.34806        -1.52385
   N       -3.76593        -5.43653        -1.64403
   C       -3.32176        -2.16255        -1.31619
   N       -2.35069        -1.55538        -1.24105
   C       -6.95057        -3.36504        -1.22267
   C       -8.06500        -2.53390        -0.94000
   C       -9.34318        -3.02745        -0.82649
   C       -9.53143        -4.40208        -0.99485
   C       -8.41273        -5.22326        -1.27997
   C       -7.12068        -4.72582        -1.39780
   S       -8.88156        -6.88372        -1.45919
   C      -10.53426        -6.47539        -1.15547
   C      -10.73518        -5.15852        -0.92969
   C       -7.62729        -1.13286        -0.83228
   O       -8.33911        -0.16304        -0.68330
   C       -6.15669        -1.15750        -1.08308
   C       -5.39861        -0.05489        -1.29867
   C       -5.79176         1.27846        -0.94556
   C       -5.50994         2.36548        -1.79353
   C       -5.97297         3.69813        -1.49612
   N       -5.67943         4.70252        -2.33985
   C       -5.01818         4.44969        -3.43864
   C       -4.59039         3.11321        -3.75092
   N       -4.83509         2.12378        -2.93408
   C       -3.88186         2.86727        -4.95498
   N       -3.32296         2.71442        -5.94267
   C       -4.73422         5.52470        -4.31841
   N       -4.52234         6.38103        -5.04889
   C       -6.70214         3.99514        -0.32231
   C       -6.87571         2.92912         0.57545
   C       -6.43362         1.58657         0.26525
   N       -6.68636         0.73857         1.26484
   S       -7.44413         1.52373         2.43139
   N       -7.47221         2.97898         1.77363
   C       -7.21508         5.32988        -0.07253
   C       -7.71058         6.10269        -1.13315
   C       -8.12197         7.39060        -0.89669
   C       -8.00817         7.94646         0.39191
   C       -7.55808         7.17354         1.45592
   C       -7.18248         5.86798         1.22134
   C       -8.38413         9.33852         0.32642
   C       -8.74001         9.64312        -1.00157
   C       -8.66911         8.40633        -1.87120
   C       -7.74524         8.59527        -3.08449
   C       -6.32592         8.98133        -2.68559
   C      -10.11787         8.07261        -2.30282
   C      -10.31011         6.73111        -2.99730
   C       -9.13058        10.91287        -1.34039
   C       -9.15262        11.92490        -0.36149
   C       -8.78293        11.60387         0.95706
   C       -8.40754        10.32559         1.30601
   C       -9.58113        13.23674        -0.75327
   C       -9.50872        14.36042         0.00359
   C       -9.97998        15.64171        -0.38913
   C       -9.72514        16.76227         0.44936
   C      -10.13699        18.09403         0.10056
   N       -9.87287        19.11755         0.93324
   C       -9.22152        18.88625         2.04201
   C       -8.79113        17.55983         2.38091
   N       -9.06225        16.54748         1.59549
   C       -8.08816        17.32505         3.58900
   N       -7.52359        17.16259         4.57234
   C       -8.95582        19.95868         2.93251
   N       -8.71826        20.79242         3.68050
   C      -10.78956        18.38321        -1.11973
   C      -11.10485        17.26689        -1.92142
   C      -10.70862        15.92237        -1.56646
   N      -11.13170        15.03700        -2.47248
   S      -11.93933        15.79710        -3.62617
   N      -11.80757        17.29002        -3.05680
   C      -11.13764        19.73004        -1.42662
   C      -11.39157        20.31585        -2.62525
   C      -11.17618        19.90036        -3.99347
   C      -10.19346        19.05520        -4.43995
   C      -10.01072        18.69879        -5.79051
   N       -9.83833        18.34208        -6.86814
   C       -9.22555        18.47045        -3.60133
   N       -8.41200        17.97480        -2.95972
   C      -12.04002        20.71622        -4.83653
   C      -12.59385        21.75882        -4.04844
   C      -12.14206        21.60750        -2.65326
   O      -12.36611        22.33387        -1.71411
   C      -13.42636        22.71672        -4.57508
   C      -13.73531        22.63710        -5.93659
   C      -13.18863        21.58479        -6.71063
   C      -12.33906        20.62013        -6.18158
   S      -13.71658        21.67937        -8.36082
   C      -14.64000        23.09943        -8.01018
   C      -14.56389        23.48985        -6.71928
   H      -10.17221        -2.37040        -0.61344
   H       -6.30214        -5.38838        -1.62510
   H      -11.26602        -7.25967        -1.16604
   H      -11.69613        -4.72251        -0.72478
   H       -4.44745        -0.13749        -1.80904
   H       -7.76632         5.67708        -2.12097
   H       -7.48521         7.59215         2.44813
   H       -6.81382         5.25815         2.03041
   H       -8.16627         9.36851        -3.73002
   H       -7.70699         7.66667        -3.65438
   H       -6.31810         9.92187        -2.13866
   H       -5.70886         9.09068        -3.57369
   H       -5.88226         8.21198        -2.05764
   H      -10.45531         8.87029        -2.96799
   H      -10.74943         8.09753        -1.41054
   H       -9.68291         6.64733        -3.88070
   H      -11.34722         6.63614        -3.31196
   H      -10.08671         5.90837        -2.32352
   H       -9.41157        11.15698        -2.35447
   H       -8.80769        12.37002         1.71562
   H       -8.13474        10.09425         2.32449
   H       -9.99204        13.32279        -1.75028
   H       -9.04341        14.34242         0.97871
   H      -11.25925        20.37564        -0.56170
   H      -13.82647        23.50401        -3.95524
   H      -11.95011        19.83342        -6.80688
   H      -15.19199        23.56066        -8.80592
   H      -15.07089        24.34910        -6.31914
*
