# ORCA input file
# SCF done       -218.586364900321          0.000402782649
! CAM-B3LYP def2-SVP def2/J RIJCOSX Grid4 TightSCF
%maxcore 5000
%tddft
    Mode sTDDFT
    Ethresh 5.0
    maxcore 5000
end

%pal
  nprocs 6
  end
* xyz 0 1
   C       -0.70272        -0.27953        -3.54700
   C       -1.27077        -0.35819        -4.79336
   C       -0.80249        -1.20254        -5.82333
   N       -0.48328        -1.86200        -6.70742
   C       -2.37706         0.37181        -5.27938
   N       -3.25371         0.91345        -5.78944
   C        0.47673        -1.03033        -3.13432
   C        0.81857        -0.64235        -1.81876
   C        1.89640        -1.16133        -1.14363
   C        2.67842        -2.11570        -1.80110
   C        2.32817        -2.50290        -3.11650
   C        1.23831        -1.97627        -3.79743
   S        3.42518        -3.69607        -3.74449
   C        4.32700        -3.65671        -2.25261
   C        3.83411        -2.79685        -1.33006
  Br        5.83449        -4.75491        -2.05409
   C       -0.14271         0.36568        -1.33036
   O       -0.10002         0.88129        -0.23253
   C       -1.11434         0.56877        -2.43071
   C       -2.23285         1.35212        -2.49521
   C       -2.85721         2.30859        -1.63668
   C       -4.00458         2.94464        -2.16786
   C       -4.64306         3.92202        -1.45322
   C       -4.19703         4.25477        -0.15729
   C       -3.08294         3.62651         0.38558
   C       -2.41480         2.67438        -0.35350
   C       -5.07909         5.25652         0.39119
   C       -6.07197         5.54643        -0.56019
   C       -5.84510         4.75689        -1.83164
   C       -5.50921         5.77988        -2.94326
   C       -5.04837         5.19724        -4.27274
   C       -7.05842         3.89254        -2.20462
   C       -7.47931         2.96458        -1.07064
   C       -7.03841         6.48464        -0.29213
   C       -7.02322         7.17265         0.92934
   C       -6.04275         6.85231         1.87713
   C       -5.07713         5.90146         1.62148
   C       -7.99123         8.23201         1.13409
   C       -7.85357         9.25156         1.99204
   C       -8.79855        10.35599         2.09693
   C       -8.41553        11.70134         2.22593
   N       -7.16703        12.29286         2.24849
   C       -5.93317        11.69042         1.79995
   C       -5.98960        11.30928         0.32215
   C       -7.33353        13.65544         2.39090
   C       -8.71196        13.95762         2.44872
   C       -9.40481        12.70691         2.35395
   C      -10.75779        12.39823         2.34808
   C      -11.12923        11.07741         2.20122
   C      -10.16586        10.08671         2.07256
   C       -9.15771        15.26957         2.53890
   C       -8.21775        16.27869         2.56027
   C       -6.86044        15.98262         2.52262
   C       -6.38020        14.67848         2.45669
   C       -4.93285        14.46924         2.55296
   C       -3.99799        15.01183         1.75654
   C       -4.21323        15.72849         0.52544
   C       -3.24429        16.64801         0.08231
   C       -3.39187        17.41634        -1.13536
   N       -2.44623        18.28162        -1.48620
   C       -1.37550        18.44405        -0.73183
   C       -1.23122        17.68092         0.46799
   N       -2.14429        16.82236         0.84249
   C       -0.07415        17.84784         1.27187
   N        0.87100        18.00249         1.90024
   C       -0.37591        19.36171        -1.11929
   N        0.46670        20.09227        -1.38975
   C       -4.53121        17.28080        -1.97507
   C       -5.48649        16.32072        -1.53564
   C       -5.31936        15.54606        -0.33172
   N       -6.30035        14.65420        -0.18720
   S       -7.34540        14.80983        -1.39720
   N       -6.59532        15.99232        -2.19243
   C       -4.77962        17.96268        -3.17318
   C       -4.03746        18.87015        -3.90249
   C       -4.50314        19.39304        -5.13796
   C       -3.64140        20.24349        -5.75984
   C       -2.44567        20.43751        -5.03691
   S       -2.45880        19.51483        -3.54032
   C       -1.35810        21.21681        -5.37753
   C       -1.18885        22.00087        -6.55458
   C       -0.00706        22.65324        -6.61806
   C        0.84683        22.42998        -5.48613
   S        0.04039        21.33969        -4.34598
   C        2.06889        22.93570        -5.26679
   H        2.12769        -0.83933        -0.14037
   H        1.01661        -2.30854        -4.79731
   H        4.26610        -2.64723        -0.35746
   H       -2.77806         1.24889        -3.42637
   H       -4.36512         2.64597        -3.14115
   H       -2.73971         3.88113         1.37695
   H       -1.54481         2.19547         0.06124
   H       -4.72798         6.44369        -2.56233
   H       -6.40169         6.38710        -3.11112
   H       -4.09561         4.68615        -4.16684
   H       -4.91726         6.00437        -4.99043
   H       -5.77818         4.50277        -4.67937
   H       -6.81510         3.29365        -3.08292
   H       -7.89116         4.54924        -2.46506
   H       -6.66760         2.29070        -0.80470
   H       -8.33603         2.36721        -1.37376
   H       -7.75307         3.53578        -0.18611
   H       -7.80197         6.71796        -1.02069
   H       -6.04922         7.35184         2.83399
   H       -4.32848         5.66750         2.36363
   H       -8.83421         8.23058         0.45404
   H       -6.99004         9.29108         2.63848
   H       -5.68603        10.82282         2.41536
   H       -5.14507        12.43286         1.93179
   H       -6.78413        10.59394         0.12883
   H       -5.04348        10.86654         0.02154
   H       -6.16546        12.20348        -0.27018
   H      -11.49598        13.17795         2.45635
   H      -12.17390        10.80467         2.19409
   H      -10.47956         9.05675         1.98613
   H      -10.21364        15.48836         2.58356
   H       -8.53058        17.31065         2.62019
   H       -6.14132        16.78832         2.56880
   H       -4.60225        13.92410         3.43117
   H       -2.95745        14.93751         2.04428
   H       -5.73282        17.69858        -3.61814
   H       -5.46612        19.11366        -5.52887
   H       -3.83938        20.72267        -6.70233
   H       -1.95202        22.04821        -7.31096
   H        0.30386        23.29071        -7.42660
   H        2.52940        23.59679        -5.98009
   H        2.62174        22.69973        -4.37590
*
