# ORCA input file
# SCF done       -176.603157380742          0.000733294783
! CAM-B3LYP def2-SVP def2/J RIJCOSX Grid4 TightSCF
%maxcore 5000
%tddft
    Mode sTDDFT
    Ethresh 5.0
    maxcore 5000
end

%pal
  nprocs 6
  end
* xyz 0 1
   C       -0.90922        -8.70339         6.87140
   C        0.38313        -8.35314         6.85486
   C        1.12179        -7.66220         7.87376
   C        2.42141        -7.44842         7.57632
   C        2.82175        -7.94879         6.30431
   S        1.46225        -8.70532         5.49534
   C        4.06978        -7.88363         5.73799
   C        5.25071        -7.30865         6.27259
   C        6.33778        -7.40365         5.46524
   C        6.09026        -8.06243         4.23164
   S        4.39617        -8.55819         4.14996
   C        6.97794        -8.29816         3.22602
   N        6.62651        -8.93639         2.07890
   C        7.42788        -9.22954         1.03640
   S        9.13908        -8.93204         1.12063
   C        9.33163        -9.68975        -0.43378
   N       10.62317        -9.75260        -0.95349
   O       10.77859       -10.28808        -2.03775
   O       11.51150        -9.26207        -0.27104
   C        8.15584       -10.13589        -0.96984
   C        7.03207        -9.86191        -0.16094
   C        5.71279       -10.21058        -0.57537
   C        4.52808        -9.70326        -0.12208
   C        3.24015       -10.08414        -0.53731
   C        2.84083       -11.09256        -1.39018
   C        1.49709       -11.35379        -1.74252
   C        1.32862       -12.38980        -2.61834
   C        2.53032       -13.00853        -3.00044
   S        3.88293       -12.24244        -2.20829
   C        2.70755       -14.06105        -3.89554
   C        1.73228       -14.72125        -4.65486
   C        2.24192       -15.69620        -5.47735
   C        3.63150       -15.84980        -5.39146
   S        4.29050       -14.71882        -4.23445
   C        4.42120       -16.74973        -6.10792
   C        5.77690       -16.89618        -5.94622
   C        6.57873       -17.77893        -6.66968
   C        7.94936       -17.99999        -6.48759
   C        8.48322       -18.93370        -7.34193
   C        7.55139       -19.47229        -8.24002
   S        5.97448       -18.78236        -7.96974
   C        7.78118       -20.42035        -9.23895
   C        8.98898       -21.08117        -9.52291
   C        8.88870       -21.95675       -10.56819
   C        7.61237       -21.99614       -11.17229
   S        6.53829       -20.90495       -10.35781
   C        7.27021       -22.88555       -12.18773
   C        6.09515       -23.04634       -12.90492
   C        5.06018       -22.14888       -13.14993
   C        3.79160       -22.49387       -13.73529
   C        3.28012       -23.75972       -13.91255
   C        2.02795       -24.03017       -14.49590
   N        1.02055       -24.31754       -14.96858
   C        3.91142       -24.95503       -13.51684
   N        4.33594       -25.97571       -13.20154
   C        3.08699       -21.25142       -14.04946
   C        3.89875       -20.16581       -13.64343
   C        5.16158       -20.69168       -13.08202
   O        6.11309       -20.02124       -12.71226
   C        3.51903       -18.85718       -13.79996
   C        2.27177       -18.60615       -14.38532
   C        1.46924       -19.69605       -14.78900
   C        1.85589       -21.02297       -14.63059
   S       -0.02822       -19.16127       -15.49392
   C        0.44100       -17.50232       -15.23668
   C        1.65383       -17.35361       -14.65482
  Br       -0.71687       -16.12015       -15.75894
   H       -1.52988        -8.47067         7.71847
   H       -1.36536        -9.22395         6.04936
   H        0.64068        -7.35767         8.78612
   H        3.11817        -6.94726         8.22451
   H        5.25753        -6.84203         7.24089
   H        7.31472        -7.02523         5.70666
   H        8.00243        -7.96781         3.30643
   H        5.67012        -9.27425         2.02694
   H        8.10574       -10.62396        -1.92639
   H        5.68866       -10.92059        -1.38869
   H        4.53638        -8.88090         0.58207
   H        2.42500        -9.50418        -0.12233
   H        0.69071       -10.76449        -1.34297
   H        0.37406       -12.71705        -2.98867
   H        0.68892       -14.46993        -4.59368
   H        1.64652       -16.30230        -6.13692
   H        3.91291       -17.37170        -6.83377
   H        6.27731       -16.29321        -5.19816
   H        8.51311       -17.47509        -5.73670
   H        9.51707       -19.22682        -7.34268
   H        9.88948       -20.90921        -8.96175
   H        9.70035       -22.56259       -10.93065
   H        8.03799       -23.62455       -12.39009
   H        6.00038       -24.00977       -13.39293
   H        4.16085       -18.05054       -13.48201
   H        1.20882       -21.81885       -14.95936
   H        2.09758       -16.40187       -14.42565
*
