# ORCA input file
# SCF done       -186.021739728007          0.000406751666
! CAM-B3LYP def2-SVP def2/J RIJCOSX Grid4 TightSCF
%maxcore 5000
%tddft
    Mode sTDDFT
    Ethresh 5.0
    maxcore 5000
end

%pal
  nprocs 6
  end
* xyz 0 1
   C        7.97290        -0.47848        -8.85136
   C        8.16437        -0.58957       -10.20034
   F        7.20249        -0.17036       -11.04257
   C        9.33543        -1.12707       -10.75196
   C       10.32561        -1.55526        -9.91241
   C       10.18232        -1.46217        -8.51269
   C        8.98166        -0.91659        -7.97124
   C        8.81048        -0.82212        -6.57041
   C        9.81118        -1.25329        -5.74210
   C       11.01742        -1.77860        -6.28933
   C       11.20434        -1.89118        -7.63690
   C       11.94377        -2.11741        -5.19229
   O       13.03321        -2.63645        -5.27067
   C       11.27940        -1.62127        -3.95218
   C        9.90433        -1.30374        -4.28562
   C        8.84138        -1.30695        -3.42256
   C        8.95771        -1.61718        -2.05123
   N        8.99706        -1.91750        -0.94456
   C        7.50880        -1.08517        -3.82456
   N        6.41378        -0.88786        -4.10639
   C       12.01902        -1.46232        -2.82640
   C       11.75588        -0.67798        -1.65219
   C       10.91807         0.45789        -1.69769
   C       10.69663         1.25684        -0.60399
   C       11.32901         0.90628         0.58685
   C       12.18546        -0.22414         0.63192
   C       12.42470        -1.01149        -0.46647
   O       12.69343        -0.30511         1.88677
   C       12.14683         0.75519         2.54450
   N       11.33630         1.48588         1.81184
   C       12.46565         1.05471         3.88023
   C       11.90518         2.15862         4.47009
   C       12.14315         2.66072         5.77728
   C       11.45182         3.79497         6.06563
   C       10.61738         4.22788         5.00656
   S       10.76447         3.15908         3.61494
   C        9.77267         5.31627         4.98928
   C        9.59862         6.32104         5.97387
   C        8.68298         7.26430         5.63903
   C        8.04481         7.05739         4.37907
   S        8.71229         5.61134         3.63283
   C        7.08745         7.88607         3.86675
   C        6.29469         7.77555         2.68172
   C        6.24478         6.59820         1.89475
   C        5.43695         6.47248         0.79524
   C        4.64320         7.56539         0.44844
   C        4.70141         8.75712         1.21710
   C        5.49909         8.87837         2.32857
   O        3.84177         9.63831         0.66011
   C        3.27566         8.95931        -0.37832
   N        3.72897         7.74340        -0.53550
   C        2.33469         9.62469        -1.21094
   C        1.50449         9.04650        -2.11206
   C        0.88812         9.86945        -3.19636
   O        0.82388        11.07540        -3.23875
   C        0.44543         8.89453        -4.20916
   C       -0.07730         9.12505        -5.45000
   C       -0.41506         8.02677        -6.27130
   C       -0.19420         6.70204        -5.79193
   C       -0.52850         5.61148        -6.61833
   C       -1.05942         5.84548        -7.85628
   C       -1.28511         7.13990        -8.34513
   C       -0.96439         8.20994        -7.55729
   F       -1.38214         4.80618        -8.64608
   C        0.34527         6.49223        -4.50163
   C        0.65170         7.57182        -3.71774
   C        1.16338         7.65659        -2.35323
   C        1.09015         6.66562        -1.41537
   C        1.30950         6.86446        -0.03517
   N        1.38066         6.97812         1.10458
   C        0.66538         5.35076        -1.69985
   N        0.33136         4.26871        -1.88537
   H        7.05635        -0.06353        -8.46209
   H        9.42961        -1.19056       -11.82443
   H       11.23713        -1.97237       -10.31334
   H        7.89519        -0.39973        -6.18652
   H       12.12273        -2.29999        -8.03085
   H       12.98984        -1.94881        -2.85711
   H       10.47331         0.73053        -2.64325
   H       10.06655         2.12941        -0.65105
   H       13.07934        -1.86674        -0.41776
   H       13.16039         0.42419         4.40944
   H       12.82051         2.16618         6.45083
   H       11.50773         4.31588         7.00504
   H       10.16328         6.32095         6.88877
   H        8.42322         8.10474         6.25848
   H        6.88720         8.76859         4.46347
   H        6.84265         5.75250         2.19050
   H        5.39372         5.56136         0.22219
   H        5.51269         9.78666         2.90972
   H        2.34540        10.70715        -1.16609
   H       -0.23287        10.13445        -5.80039
   H       -0.37131         4.60161        -6.27311
   H       -1.70632         7.26257        -9.33035
   H       -1.12937         9.21619        -7.91198
   H        0.51122         5.48070        -4.16667
*
