# ORCA input file
# SCF done       -229.313022278855          0.000905496779
! CAM-B3LYP def2-SVP def2/J RIJCOSX Grid4 TightSCF
%maxcore 5000
%tddft
    Mode sTDDFT
    Ethresh 5.0
    maxcore 5000
end

%pal
  nprocs 6
  end
* xyz 0 1
   C       -7.76584       -10.93704       -12.05457
   C       -8.86134       -11.27387       -11.30210
   C       -9.50660       -12.52544       -11.37187
   N      -10.06692       -13.52739       -11.38860
   C       -9.53108       -10.39825       -10.42051
   N      -10.15435        -9.73423        -9.72158
   C       -7.15547       -11.76176       -13.08915
   C       -6.20775       -10.97686       -13.78895
   C       -5.46332       -11.47148       -14.83170
   C       -5.65919       -12.80747       -15.19741
   C       -6.60399       -13.58601       -14.48751
   C       -7.36112       -13.08406       -13.43614
   S       -6.67712       -15.21255       -15.09504
   C       -5.45480       -14.82932       -16.27809
   C       -5.01398       -13.55026       -16.22402
  Br       -4.87460       -16.15443       -17.47191
   C       -6.15421        -9.61767       -13.20558
   O       -5.45208        -8.70993       -13.58714
   C       -7.07835        -9.66011       -12.04062
   C       -7.12686        -8.76435       -11.00931
   C       -6.52646        -7.49154       -10.92849
   O       -6.07738        -6.78996       -12.00115
   C       -6.29021        -6.72934        -9.79036
   C       -6.39127        -6.72133        -8.31775
   O       -6.83681        -7.54403        -7.56171
   N       -5.82542        -5.50826        -7.95389
   C       -5.35340        -4.74486        -9.01268
   O       -4.82531        -3.66314        -8.91521
   C       -5.65645        -5.54707       -10.20281
   C       -5.54195        -5.61433       -11.59503
   C       -4.99113        -4.73665       -12.54463
   C       -4.37896        -3.55961       -12.19967
   C       -3.76598        -2.70266       -13.11711
   C       -3.05381        -1.57782       -12.75378
   C       -2.33160        -0.70823       -13.60593
   C       -1.63776         0.26791       -12.95166
   C       -1.78878         0.22500       -11.55005
   S       -2.86285        -1.07774       -11.08873
   C       -1.17982         0.99831       -10.57600
   C       -0.16647         1.97531       -10.69636
   C        0.29369         2.43589        -9.49922
   C       -0.33542         1.85709        -8.36500
   S       -1.58006         0.73980        -8.89723
   C        0.01700         2.02582        -7.04965
   C       -0.59568         1.38470        -5.95231
   C       -0.06237         1.18361        -4.69519
   C       -0.85090         0.36658        -3.86117
   C       -0.55272        -0.13621        -2.56975
   C        0.70381         0.10346        -1.89642
   C        0.91531         0.23811        -0.55082
   C        2.27251         0.38338        -0.20726
   C        3.11116         0.34699        -1.27871
   S        2.22250         0.14972        -2.75312
   C        4.59291         0.45516        -1.30085
   C       -1.51954        -0.95223        -1.98951
   C       -2.76563        -1.23948        -2.60545
   C       -3.05807        -0.76780        -3.90337
   C       -2.07221         0.00602        -4.49349
   S       -2.17085         0.63935        -6.10609
   C       -4.23828        -1.17690        -4.63435
   C       -4.31249        -1.54501        -5.94950
   C       -5.60531        -1.92051        -6.35896
   C       -6.53523        -1.84043        -5.37118
   S       -5.81570        -1.28930        -3.89022
   C       -7.98161        -2.17317        -5.42758
   C       -3.50453        -2.18750        -1.88409
   C       -2.85383        -2.69955        -0.79086
   S       -1.32869        -1.87712        -0.52112
   C       -3.30186        -3.77344         0.01525
   C       -4.21414        -4.71719        -0.35893
   C       -4.80435        -5.03083        -1.64658
   C       -4.20881        -4.91775        -2.87967
   C       -4.85070        -5.12001        -4.11027
   N       -5.32270        -5.17301        -5.15723
   C       -2.85528        -4.55931        -3.06210
   N       -1.74489        -4.35563        -3.26871
   C       -6.06190        -5.71794        -1.39032
   C       -6.12994        -6.04039        -0.01061
   C       -4.93652        -5.50163         0.67729
   O       -4.63651        -5.62196         1.84232
   C       -7.18216        -6.73968         0.52746
   C       -8.21728        -7.12728        -0.33145
   C       -8.14274        -6.79264        -1.70579
   C       -7.07299        -6.09594        -2.25332
   S       -9.53052        -7.36238        -2.58104
   C      -10.18247        -8.03733        -1.11220
   C       -9.40304        -7.84581        -0.02041
  Br      -11.83316        -8.92506        -1.15370
   H       -4.74955       -10.84849       -15.34762
   H       -8.06414       -13.71714       -12.92098
   H       -4.26347       -13.14584       -16.87840
   H       -7.63728        -9.04724       -10.09685
   H       -5.70342        -5.24677        -6.97375
   H       -5.04229        -5.05639       -13.57547
   H       -4.33863        -3.28551       -11.15247
   H       -3.81131        -2.94653       -14.17055
   H       -2.33290        -0.84072       -14.67352
   H       -1.02585         1.00737       -13.43678
   H        0.21378         2.28840       -11.65236
   H        1.07845         3.16371        -9.38984
   H        0.88031         2.64210        -6.83582
   H        0.89288         1.58651        -4.41320
   H        0.11916         0.26866         0.17087
   H        2.61561         0.50740         0.80442
   H        4.97278         0.55225        -0.28672
   H        4.90880         1.32324        -1.87943
   H        5.03576        -0.42858        -1.75959
   H       -3.46322        -1.59901        -6.60508
   H       -5.81808        -2.24963        -7.35895
   H       -8.19959        -3.04592        -4.81083
   H       -8.26747        -2.39293        -6.45320
   H       -8.58646        -1.34532        -5.05908
   H       -4.49812        -2.48847        -2.15624
   H       -2.93506        -3.83538         1.03326
   H       -7.20744        -6.98345         1.57787
   H       -7.05387        -5.86384        -3.30576
   H       -9.65384        -8.19590         0.96415
*
