# ORCA input file
# SCF done       -208.757388652894          0.000482820178
! CAM-B3LYP def2-SVP def2/J RIJCOSX Grid4 TightSCF
%maxcore 5000
%tddft
    Mode sTDDFT
    Ethresh 5.0
    maxcore 5000
end

%pal
  nprocs 6
  end
* xyz 0 1
   C       -0.68827         4.87323        -4.76122
   C       -0.10772         6.10651        -4.58970
   C        1.20569         6.42629        -4.98955
   N        2.26585         6.75191        -5.28828
   C       -0.71415         7.22741        -3.98750
   N       -1.12476         8.18836        -3.50954
   C       -0.03534         3.71854        -5.37299
   C       -0.92939         2.62157        -5.34242
   C       -0.60541         1.38580        -5.84549
   C        0.66517         1.22210        -6.40753
   C        1.55221         2.32341        -6.43454
   C        1.22362         3.57398        -5.92572
   S        3.06917         1.90431        -7.17322
   C        2.49722         0.27754        -7.43115
   C        1.23695         0.05686        -6.98867
  Br        3.61891        -0.97716        -8.26024
   C       -2.19761         3.03971        -4.70676
   O       -3.16842         2.33550        -4.52221
   C       -2.01942         4.46863        -4.36468
   C       -2.97608         5.26117        -3.78079
   C       -4.25300         4.83351        -3.37959
   C       -5.13909         5.70534        -2.81149
   C       -6.42272         5.35462        -2.36038
   O       -7.22725         6.30847        -1.81749
   C       -8.39406         5.73045        -1.44584
   C       -8.34854         4.37072        -1.75674
   C       -7.09525         4.12494        -2.34107
   O       -6.62636         2.95213        -2.78882
   O       -9.28978         3.40977        -1.56826
   C       -9.43464         6.48760        -0.86136
   C       -9.39192         7.83880        -0.71072
   C      -10.46290         8.59868        -0.19351
   C      -10.45410         9.95997        -0.20723
   C      -11.48014        10.84317         0.19585
   S      -11.13128        12.54271         0.11149
   C      -12.69564        12.96242         0.74429
   C      -13.45321        11.79951         0.99359
   C      -12.76797        10.60990         0.69107
   C      -13.28715         9.24634         0.87955
   C      -13.50331         8.70782         2.06877
   O      -14.71680        11.96892         1.43937
   C      -15.66900        10.93409         1.31769
   C      -13.01163        14.31998         0.87723
   C      -14.13374        14.87620         1.44116
   C      -14.43585        16.24417         1.43692
   C      -13.85908        17.24652         0.67956
   C      -14.20988        18.61648         0.70119
   C      -13.55220        19.39169        -0.21393
   C      -12.65149        18.66702        -1.01639
   S      -12.64139        16.98911        -0.55321
   C      -11.86278        19.05941        -2.08925
   C      -11.70781        20.29586        -2.73726
   C      -10.93766        20.22432        -3.86697
   C      -10.48035        18.92518        -4.18138
   S      -10.96148        17.82047        -2.93231
   C       -9.71701        18.55818        -5.28537
   C       -9.35038        17.29123        -5.71284
   C       -9.81298        16.01533        -5.39615
   C       -8.90789        14.86920        -5.63491
   O       -7.83141        14.88700        -6.19341
   C       -9.57688        13.69394        -5.02276
   C       -9.14898        12.40328        -4.92675
   C       -9.98405        11.44737        -4.29909
   C      -11.22880        11.86502        -3.74849
   C      -12.05860        10.91024        -3.12938
   C      -11.68425         9.59744        -3.08731
   C      -10.46524         9.18078        -3.64925
   C       -9.62394        10.08776        -4.23047
   F      -10.13830         7.87494        -3.61818
   F      -12.48942         8.68541        -2.50613
   C      -11.64147        13.21369        -3.85886
   C      -10.83825        14.10651        -4.51192
   C      -11.03471        15.51398        -4.86069
   C      -12.26199        16.15281        -4.83137
   C      -12.51208        17.37040        -5.48654
   N      -12.75877        18.35223        -6.03004
   C      -13.41430        15.62599        -4.22533
   N      -14.37834        15.26984        -3.70930
   H       -1.31048         0.57024        -5.80655
   H        1.93594         4.38039        -5.97262
   H        0.72946        -0.88722        -7.06769
   H       -2.74093         6.30325        -3.60473
   H       -4.52801         3.79980        -3.52023
   H       -4.86643         6.74501        -2.68027
   H       -7.30365         2.27353        -2.66236
   H      -10.09637         3.80531        -1.22107
   H      -10.31911         5.94427        -0.55577
   H       -8.51017         8.36518        -1.04879
   H      -11.31894         8.06288         0.18641
   H       -9.56585        10.45347        -0.58473
   H      -13.46888         8.68431        -0.02923
   H      -13.30260         9.24825         2.97980
   H      -13.88005         7.70508         2.17789
   H      -16.64009        11.42799         1.35740
   H      -15.59027        10.21965         2.14146
   H      -15.56945        10.40287         0.36928
   H      -12.23695        14.97808         0.51015
   H      -14.83244        14.22295         1.94190
   H      -15.25876        16.56098         2.06604
   H      -14.94793        18.99324         1.38786
   H      -13.70962        20.44750        -0.34199
   H      -12.17615        21.19415        -2.37703
   H      -10.72750        21.06025        -4.50972
   H       -9.31281        19.38884        -5.85079
   H       -8.50169        17.26213        -6.39141
   H       -8.19570        12.10660        -5.33708
   H      -13.00260        11.21388        -2.70417
   H       -8.68980         9.75267        -4.65347
   H      -12.58951        13.50135        -3.43400
*
