# ORCA input file
# SCF done       -194.468146373676          0.000736118098
! CAM-B3LYP def2-SVP def2/J RIJCOSX Grid4 TightSCF
%maxcore 5000
%tddft
    Mode sTDDFT
    Ethresh 5.0
    maxcore 5000
end

%pal
  nprocs 6
  end
* xyz 0 1
   C      -11.83766         6.30213         1.03333
   C      -12.25609         5.84865         2.25635
   C      -12.99806         6.61832         3.17689
   N      -13.60689         7.19563         3.95979
   C      -12.00835         4.54724         2.73981
   N      -11.82839         3.49645         3.16530
   C      -12.07896         7.63492         0.48465
   C      -11.51606         7.70568        -0.81573
   C      -11.57167         8.83834        -1.59081
   C      -12.23251         9.95238        -1.06616
   C      -12.80079         9.87220         0.22733
   C      -12.72888         8.73089         1.01857
   S      -13.59268        11.35448         0.66934
   C      -13.14320        12.05723        -0.85950
   C      -12.44509        11.22238        -1.66582
  Br      -13.64250        13.82133        -1.25734
   C      -10.90533         6.41598        -1.13891
   O      -10.35127         6.09827        -2.18894
   C      -11.09506         5.55920         0.03744
   C      -10.59146         4.28176         0.08831
   N       -9.90551         3.80208        -0.95642
   C       -9.30116         2.59584        -1.10283
   S       -9.61163         1.26224        -0.03994
   C       -8.62639         0.25520        -1.05333
   N       -8.46585        -1.08602        -0.66905
   O       -7.78191        -1.79772        -1.37593
   O       -9.03349        -1.42899         0.35171
   C       -8.10428         0.90362        -2.13967
   C       -8.45899         2.26486        -2.17529
   C       -8.03719         3.19727        -3.19218
   C       -7.85453         4.51003        -2.93888
   C       -7.68137         5.55075        -3.89221
   S       -7.90333         7.17319        -3.30732
   C       -7.73283         7.87823        -4.89755
   C       -7.47881         6.87086        -5.82465
   C       -7.46966         5.57140        -5.26190
   C       -7.23243         4.56457        -6.29683
   O       -7.19639         3.36322        -6.17718
   C       -7.04791         5.33436        -7.59485
   C       -7.22004         6.80903        -7.26118
   O       -7.13813         7.72099        -8.05099
   C       -7.90335         9.27013        -4.99478
   C       -7.67364        10.05969        -6.09117
   C       -7.81074        11.44920        -6.01051
   C       -7.14801        12.43197        -6.76624
   C       -6.35165        12.31705        -7.91871
   C       -5.74118        13.43875        -8.40916
   C       -5.89606        14.68990        -7.77605
   C       -6.65868        14.83393        -6.64667
   C       -7.30423        13.70761        -6.11731
   C       -8.08606        13.55124        -4.94584
   C       -8.57899        12.17291        -4.98543
   C       -9.75834        11.76384        -4.50285
   C       -8.34883        14.52746        -3.99319
   C       -8.86309        14.40855        -2.71192
   C       -9.46065        15.60707        -2.07914
   O       -9.42914        16.74356        -2.50100
   C      -10.12677        15.11851        -0.85320
   C      -10.86743        15.80734         0.06101
   C      -11.37779        15.12584         1.19021
   C      -11.08588        13.74190         1.35984
   C      -11.57049        13.07527         2.50171
   C      -12.32727        13.76237         3.40989
   C      -12.64110        15.11823         3.25124
   C      -12.16334        15.78471         2.15664
   F      -12.79444        13.12335         4.49727
   C      -10.32467        13.05104         0.38757
   C       -9.86129        13.72726        -0.70790
   C       -9.00815        13.30049        -1.81576
   C       -8.32315        12.10008        -1.84513
   C       -7.19693        11.86681        -2.65281
   N       -6.23022        11.63428        -3.22987
   C       -8.65962        10.98395        -1.06614
   N       -8.95711        10.00512        -0.53747
   H      -11.12523         8.86007        -2.57216
   H      -13.17143         8.72402         2.00087
   H      -12.10424        11.48716        -2.64911
   H      -10.69955         3.64110         0.95427
   H       -9.85104         4.46263        -1.75550
   H       -7.47266         0.42095        -2.86330
   H       -7.87719         2.80376        -4.18688
   H       -7.88248         4.86856        -1.91780
   H       -7.77377         5.01534        -8.34587
   H       -6.05945         5.14641        -8.02003
   H       -8.17905         9.74893        -4.06464
   H       -7.27586         9.61756        -6.99386
   H       -6.23871        11.35937        -8.40283
   H       -5.12876        13.37819        -9.29609
   H       -5.39649        15.54887        -8.19903
   H       -6.76693        15.79712        -6.17218
   H      -10.16098        10.79245        -4.73628
   H      -10.36911        12.42006        -3.90478
   H       -8.15862        15.55581        -4.28635
   H      -11.05893        16.86141        -0.06963
   H      -11.34196        12.03254         2.66070
   H      -13.24737        15.60721         3.99691
   H      -12.38649        16.83131         2.01579
   H      -10.12836        12.00010         0.53616
*
