# ORCA input file
# SCF done       -177.450589598046          0.003533920276
! CAM-B3LYP def2-SVP def2/J RIJCOSX Grid4 TightSCF
%maxcore 5000
%tddft
    Mode sTDDFT
    Ethresh 5.0
    maxcore 5000
end

%pal
  nprocs 6
  end
* xyz 0 1
   C       -8.11550        -0.48236         3.28786
   C       -7.46970        -1.57167         2.75549
   C       -8.05572        -2.84014         2.59396
   N       -8.46627        -3.90644         2.46823
   C       -6.09927        -1.58423         2.43128
   N       -4.98100        -1.67685         2.18240
   C       -9.49379        -0.45024         3.75420
   C       -9.69455         0.75469         4.46995
   C      -10.90705         1.09656         5.01282
   C      -11.95817         0.18357         4.88720
   C      -11.74441        -1.02547         4.18465
   C      -10.52660        -1.35538         3.60095
   S      -13.18120        -2.00360         4.16047
   C      -14.02724        -0.79442         5.09622
   C      -13.27909         0.29064         5.40183
  Br      -15.81502        -1.09119         5.57052
   C       -8.42552         1.50233         4.54538
   O       -8.22510         2.52930         5.15632
   C       -7.48632         0.75598         3.66942
   C       -6.28837         1.26356         3.24608
   C       -5.58832         2.28629         3.93924
   S       -4.80114         3.59244         3.09975
   C       -4.35582         4.31386         4.59095
   C       -4.73719         3.59188         5.68262
   C       -4.44763         3.97589         7.09295
   C       -5.42839         2.40641         5.31828
   C       -5.84489         1.35178         6.21444
   C       -5.69548         0.05661         5.87714
   C       -6.30241        -1.06274         6.51958
   C       -6.22283        -2.29454         5.97231
   C       -6.90714        -3.44463         6.47592
   C       -6.86540        -4.68882         5.96938
   C       -6.11267        -5.10924         4.74973
   C       -7.62107        -5.81358         6.64723
   N       -6.76132        -6.93058         6.99909
   C       -5.69389        -6.83136         7.80526
   C       -5.33506        -5.68768         8.46169
   C       -4.16697        -5.51088         9.20774
   C       -3.80928        -4.27645         9.70467
   C       -2.63627        -3.89685        10.38727
   C       -2.55878        -2.56091        10.66942
   C       -3.67756        -1.82401        10.23282
   S       -4.83260        -2.86425         9.45942
   C       -3.92960        -0.46114        10.34510
   C       -3.11848         0.55473        10.87034
   C       -3.68982         1.80014        10.80911
   C       -4.97962         1.81416        10.24771
   S       -5.44495         0.20251         9.77225
   C       -5.80948         2.91699        10.07952
   C       -7.08769         2.82775         9.56232
   C       -7.96542         3.89488         9.40753
   C       -9.31161         3.82633         8.92813
   C       -9.95294         2.74193         8.36397
   C      -11.30218         2.74056         7.97506
   N      -12.39770         2.64802         7.63345
   C       -9.36317         1.50023         8.06806
   N       -8.96879         0.45911         7.77588
   C       -9.91711         5.14901         9.11520
   C       -8.94351         6.01809         9.63606
   C       -7.66990         5.27703         9.81140
   O       -6.61840         5.74400        10.20832
   C       -9.22278         7.33625         9.92126
   C      -10.51056         7.80326         9.68174
   C      -11.48254         6.94895         9.16033
   C      -11.19529         5.61746         8.87224
  Cl      -13.07251         7.53787         8.86593
  Cl      -10.90208         9.44069        10.03494
   H      -11.04781         2.03303         5.52600
   H      -10.41321        -2.27817         3.05562
   H      -13.62263         1.12793         5.98275
   H       -5.85690         0.91378         2.31486
   H       -3.82544         5.24629         4.57984
   H       -3.78749         4.83801         7.12989
   H       -3.98118         3.14588         7.62197
   H       -5.37340         4.22421         7.61045
   H       -6.31866         1.63981         7.14124
   H       -5.12836        -0.17464         4.98053
   H       -6.90886        -0.88127         7.39489
   H       -5.60786        -2.42033         5.09081
   H       -7.51304        -3.26115         7.35502
   H       -6.79885        -5.54286         4.02348
   H       -5.36766        -5.86366         5.00269
   H       -5.60091        -4.27998         4.27513
   H       -8.38767        -6.19690         5.96923
   H       -8.11618        -5.44002         7.54978
   H       -6.91488        -7.80163         6.51827
   H       -5.09718        -7.72909         7.90512
   H       -5.95951        -4.81650         8.35079
   H       -3.49453        -6.34348         9.36537
   H       -1.87576        -4.61387        10.64301
   H       -1.73275        -2.09574        11.17638
   H       -2.14011         0.35778        11.27327
   H       -3.21780         2.70261        11.15732
   H       -5.43019         3.88006        10.38553
   H       -7.44341         1.84008         9.29123
   H       -8.46212         7.98617        10.32345
   H      -11.97516         4.98925         8.47373
*
