# ORCA input file
# SCF done       -184.068888146263          0.000795442620
! CAM-B3LYP def2-SVP def2/J RIJCOSX Grid4 TightSCF
%maxcore 5000
%tddft
    Mode sTDDFT
    Ethresh 5.0
    maxcore 5000
end

%pal
  nprocs 6
  end
* xyz 0 1
   C        3.86480        -5.63521         1.57319
   C        3.37649        -6.16703         2.73381
   F        4.21437        -6.52709         3.71422
   C        1.98967        -6.34179         2.91528
   F        1.53918        -6.86310         4.06391
   C        1.10997        -5.98183         1.93299
   C        1.58232        -5.42948         0.72672
   C        2.98422        -5.25321         0.54120
   C        3.48155        -4.70096        -0.66182
   C        2.60395        -4.33661        -1.64872
   C        1.20621        -4.51486        -1.45281
   C        0.69553        -5.04294        -0.30256
   C        0.48143        -4.03766        -2.64231
   O       -0.72498        -3.94504        -2.77095
   C        1.51911        -3.58165        -3.58850
   C        2.81893        -3.75520        -2.97142
   C        4.03963        -3.48586        -3.53196
   C        4.23301        -2.97165        -4.83063
   N        4.44970        -2.55630        -5.87921
   C        5.27319        -3.69347        -2.87948
   N        6.30700        -3.82991        -2.39998
   C        1.26068        -2.93551        -4.76763
   N        0.07942        -2.92679        -5.41776
   C       -0.90083        -3.89435        -5.34840
   S       -0.46833        -5.57206        -5.28806
   C       -2.14605        -5.98210        -5.35971
   N       -2.48830        -7.34218        -5.30415
   O       -3.66686        -7.63150        -5.36513
   O       -1.56855        -8.13318        -5.19723
   C       -2.97651        -4.89847        -5.43743
   C       -2.27368        -3.67599        -5.43792
   C       -2.85273        -2.35517        -5.40955
   C       -4.16625        -2.10636        -5.27726
   C       -4.80003        -0.81789        -5.14027
   C       -4.30593         0.29576        -4.58414
   C       -2.94173         0.42610        -3.98222
   C       -5.13439         1.56070        -4.47714
   N       -6.52325         1.44888        -4.83100
   C       -7.00849         1.48584        -6.09532
   C       -6.27665         1.66369        -7.21882
   C       -6.80347         1.78323        -8.53785
   S       -5.74276         1.41708        -9.86616
   C       -6.98371         1.75882       -11.03916
   C       -8.15422         2.14099       -10.41445
   C       -8.04777         2.17191        -9.00508
   C       -9.17628         2.62852        -8.13439
   F       -9.81431         1.55016        -7.54520
   C      -10.17851         3.42883        -8.96849
   F      -11.26078         3.78638        -8.20707
   C      -10.60973         2.66204       -10.21805
   F      -11.07615         1.41048        -9.92158
   C       -9.40071         2.52527       -11.14986
   F       -9.22204         3.75262       -11.77548
   C       -6.65837         1.61495       -12.41655
   S       -7.71678         1.95662       -13.76743
   C       -6.55567         1.52327       -14.95379
   C       -5.38236         1.13037       -14.35911
   C       -5.45502         1.18872       -12.93205
   O       -4.29078         0.79684       -12.37054
   C       -3.47874         0.49211       -13.41984
   N       -2.16989         0.04064       -13.12248
   O       -1.45339        -0.20723       -14.07353
   O       -1.85728        -0.06923       -11.95629
   C       -4.06646         0.66820       -14.64262
   H        4.92925        -5.50970         1.45034
   H        0.05156        -6.12267         2.08695
   H        4.54697        -4.57764        -0.76891
   H       -0.36984        -5.16668        -0.18100
   H        2.03413        -2.34025        -5.23550
   H       -0.06113        -2.20317        -6.11251
   H       -4.04463        -5.00154        -5.48417
   H       -2.15477        -1.53639        -5.48173
   H       -4.85604        -2.93957        -5.27546
   H       -5.82605        -0.79872        -5.48617
   H       -2.21971         0.74696        -4.73364
   H       -2.61012        -0.52298        -3.56670
   H       -2.94427         1.17425        -3.19167
   H       -4.67744         2.33224        -5.10781
   H       -5.08669         1.92029        -3.44329
   H       -7.13125         1.07574        -4.12042
   H       -8.07769         1.35877        -6.14778
   H       -5.19842         1.64989        -7.16420
   H       -8.81288         3.24196        -7.29761
   H       -9.70444         4.36442        -9.29635
   H      -11.42361         3.19502       -10.72557
   H       -9.63359         1.80756       -11.94780
   H       -6.80689         1.58051       -15.99220
   H       -3.60991         0.48903       -15.59389
*
