# ORCA input file
# SCF done       -165.599515432096          0.000977199341
! CAM-B3LYP def2-SVP def2/J RIJCOSX Grid4 TightSCF
%maxcore 5000
%tddft
    Mode sTDDFT
    Ethresh 5.0
    maxcore 5000
end

%pal
  nprocs 6
  end
* xyz 0 1
   C      -13.08590         0.71502         5.16651
   C      -13.85766         1.70346         4.62077
   F      -14.77669         2.32985         5.36806
   C      -13.69786         2.07517         3.27216
   F      -14.46733         3.04724         2.76115
   C      -12.76719         1.45355         2.48641
   C      -11.95765         0.43315         3.01977
   C      -12.11844         0.05512         4.38388
   C      -11.31544        -0.96812         4.94151
   C      -10.38040        -1.59205         4.15997
   C      -10.22620        -1.20574         2.79658
   C      -10.98685        -0.22393         2.23044
   C       -9.16323        -2.01817         2.19419
   O       -8.75030        -1.96605         1.03604
   C       -8.67976        -2.91027         3.24722
   C       -9.42539        -2.65869         4.45636
   C       -9.28020        -3.28996         5.66697
   C      -10.04484        -2.99077         6.81142
   N      -10.63088        -2.78184         7.77674
   C       -8.34813        -4.31705         5.91301
   N       -7.60758        -5.16157         6.15231
   C       -7.65728        -3.80419         3.01568
   N       -7.09141        -3.86126         1.80456
   C       -6.06854        -4.65051         1.40075
   S       -5.30528        -5.78598         2.47139
   C       -4.21964        -6.22289         1.19045
   N       -3.26065        -7.20743         1.44714
   O       -2.49945        -7.50283         0.54149
   O       -3.25808        -7.69803         2.56391
   C       -4.43478        -5.53515         0.02516
   C       -5.50091        -4.62213         0.11796
   C       -5.97520        -3.77546        -0.94509
   C       -5.31775        -3.54518        -2.09726
   C       -5.85213        -2.70859        -3.13177
   C       -5.19918        -2.32454        -4.23990
   C       -3.78429        -2.71234        -4.54745
   C       -5.88544        -1.43360        -5.24992
   N       -5.61391        -1.82374        -6.60886
   C       -4.83755        -1.11998        -7.45621
   C       -4.35926        -1.58214        -8.64284
   C       -3.60354        -0.78409        -9.51919
   C       -3.04458        -1.21510       -10.69344
   C       -2.28380        -0.44841       -11.60823
   C       -1.82856        -1.14594       -12.68486
   C       -2.19901        -2.51032       -12.68439
   S       -3.16343        -2.87590       -11.27302
   C       -1.86572        -3.47529       -13.61453
   C       -1.10607        -3.31439       -14.79376
   C       -0.91095        -4.46222       -15.49946
   C       -1.50906        -5.61284       -14.92202
   S       -2.36334        -5.14762       -13.45094
   C       -1.54522        -6.91798       -15.32729
   C       -0.82138        -7.53669       -16.39018
   S       -1.61452        -9.06471       -16.87209
   C       -0.79234        -9.53695       -18.35103
   C       -1.28392       -10.53200       -19.13842
   S       -0.29450       -10.83354       -20.51256
   C        0.79478        -9.59569       -20.03032
   C        0.41419        -8.99382       -18.87072
   S        1.36953        -7.70859       -18.14767
   C        0.34381        -7.08156       -16.89118
   H      -13.22168         0.44283         6.20153
   H      -12.65682         1.75004         1.45506
   H      -11.46181        -1.23053         5.97660
   H      -10.85013         0.04988         1.19530
   H       -7.27804        -4.47049         3.77892
   H       -7.50233        -3.19016         1.12835
   H       -3.84552        -5.71253        -0.85512
   H       -6.92930        -3.28765        -0.79350
   H       -4.35033        -3.99163        -2.26689
   H       -6.86472        -2.35828        -2.97513
   H       -3.72048        -3.76993        -4.80530
   H       -3.14148        -2.54139        -3.68663
   H       -3.39660        -2.13772        -5.38502
   H       -5.53814        -0.40254        -5.12086
   H       -6.96750        -1.44844        -5.07575
   H       -5.80398        -2.78669        -6.84581
   H       -4.62421        -0.10454        -7.14702
   H       -4.55528        -2.60439        -8.93707
   H       -3.44030         0.25120        -9.24790
   H       -2.09716         0.59776       -11.43904
   H       -1.23475        -0.72061       -13.47375
   H       -0.72866        -2.35388       -15.09703
   H       -0.39940        -4.49789       -16.44358
   H       -2.21534        -7.57842       -14.79228
   H       -2.17195       -11.10744       -18.97463
   H        1.66226        -9.37677       -20.61887
   H        0.81038        -6.21913       -16.44383
*
