# ORCA input file
# SCF done       -155.451404333578          0.000739325395
! CAM-B3LYP def2-SVP def2/J RIJCOSX Grid4 TightSCF
%maxcore 5000
%tddft
    Mode sTDDFT
    Ethresh 5.0
    maxcore 5000
end

%pal
  nprocs 6
  end
* xyz 0 1
   C       10.93298        -1.24563        -4.85115
   C       10.23535        -1.37099        -3.71475
   C       10.18217        -0.45369        -2.61051
   C        9.38853        -0.85117        -1.59373
   C        8.75054        -2.10911        -1.80485
   S        9.20387        -2.76688        -3.36115
   C        7.90024        -2.76469        -0.94871
   C        7.46602        -2.35406         0.33741
   C        6.63486        -3.23698         0.94599
   C        6.35372        -4.40585         0.18351
   S        7.19224        -4.32083        -1.35263
   C        5.56688        -5.44560         0.59529
   C        5.26850        -6.62215        -0.12460
   O        4.52242        -7.57269         0.50468
   C        4.34523        -8.61882        -0.32971
   C        4.99422        -8.32368        -1.53776
   C        5.58145        -7.05498        -1.40300
   N        5.07903        -9.12232        -2.70359
   O        4.56368       -10.22086        -2.68873
   O        5.67306        -8.64632        -3.65146
   C        3.62001        -9.76067         0.08724
   C        3.10915        -9.86740         1.34272
   C        2.40436       -11.00107         1.81244
   O        1.97269       -11.02197         3.10627
   C        2.03629       -12.19688         1.21930
   C        2.07061       -12.96979        -0.02598
   O        2.52606       -12.71443        -1.10790
   N        1.41469       -14.15699         0.30739
   C        0.96012       -14.23764         1.61738
   O        0.37415       -15.17687         2.09609
   C        1.36433       -12.95858         2.20482
   C        1.34389       -12.19953         3.36264
   C        0.81611       -12.45504         4.65385
   C        0.20759       -13.62494         4.96813
   C       -0.32465       -13.92001         6.24958
   O       -0.27301       -12.99957         7.25476
   C       -0.83767       -13.53028         8.35685
   C       -1.26521       -14.83766         8.05018
   C       -0.93360       -15.07178         6.70302
   N       -1.90541       -15.75594         8.90060
   O       -2.12608       -15.42101        10.05376
   O       -2.20273       -16.83896         8.43108
   C       -0.92990       -12.79829         9.55370
   C       -0.47290       -11.51370         9.68192
   C       -0.56565       -10.77634        10.86576
   C       -0.12392        -9.48171        11.00647
   C       -0.19549        -8.68267        12.17537
   C        0.31182        -7.42951        12.03013
   C        0.81756        -7.16223        10.73426
   S        0.62329        -8.57048         9.70849
   C        1.38877        -5.99885        10.27281
   C        1.59453        -4.79127        10.99915
   C        2.18120        -3.80604        10.28508
   C        2.49017        -4.16071         8.92908
   S        1.97510        -5.82960         8.63366
   C        3.07123        -3.39894         7.99270
   H       11.54875        -0.38083        -5.02596
   H       10.90218        -1.99691        -5.61887
   H       10.74410         0.46325        -2.63203
   H        9.23173        -0.28926        -0.69024
   H        7.78341        -1.42356         0.77257
   H        6.20792        -3.09789         1.92345
   H        5.12858        -5.38301         1.58155
   H        6.14729        -6.54821        -2.15571
   H        3.50217       -10.55400        -0.63818
   H        3.24302        -9.06524         2.05502
   H        1.28105       -14.90243        -0.36099
   H        0.92634       -11.67114         5.38873
   H        0.10665       -14.40434         4.22624
   H       -1.11894       -15.96913         6.15012
   H       -1.39251       -13.30458        10.38731
   H       -0.01695       -11.03442         8.82459
   H       -1.01580       -11.24690        11.72956
   H       -0.62237        -9.06536        13.08552
   H        0.33751        -6.69320        12.81314
   H        1.29672        -4.69952        12.02841
   H        2.41468        -2.82651        10.66269
   H        3.36652        -2.38813         8.21197
   H        3.25440        -3.76650         6.99970
*
