# ORCA input file
# SCF done       -164.190552801204          0.000829803462
! CAM-B3LYP def2-SVP def2/J RIJCOSX Grid4 TightSCF
%maxcore 5000
%tddft
    Mode sTDDFT
    Ethresh 5.0
    maxcore 5000
end

%pal
  nprocs 6
  end
* xyz 0 1
   C       -5.61180         0.34540         1.26221
   C       -5.90464        -0.80651         1.94065
   C       -5.13333        -1.95710         1.76189
   C       -4.04802        -1.99725         0.90285
   C       -3.71958        -0.80195         0.18978
   N       -2.66597        -0.76101        -0.64659
   C       -2.41241         0.35689        -1.27209
   C       -3.20823         1.50432        -1.09106
   N       -4.23184         1.50702        -0.28253
   C       -4.51552         0.36502         0.37941
   C       -3.28538        -3.20878         0.74312
   C       -2.27607        -3.48521        -0.15266
   C       -1.77905        -4.78370        -0.01228
   C       -2.41800        -5.50581         1.00934
   S       -3.62632        -4.59178         1.78757
   C       -1.85088        -6.80403         1.06751
   C       -0.85643        -6.90346         0.08129
   C       -0.77658        -5.63217        -0.62771
   C        0.06759        -5.31331        -1.65142
   C        1.00574        -6.23441        -2.16170
   N        1.76817        -6.98359        -2.57821
   C        0.06533        -4.04538        -2.26995
   N        0.08041        -3.02121        -2.78575
   C       -0.24186        -8.15356         0.05184
   C       -0.75534        -9.01032         1.01043
   S       -2.02461        -8.24568         1.96449
   C       -0.37994       -10.36029         1.26509
   C       -0.92812       -11.10347         2.28262
   C       -0.61082       -12.42956         2.56479
   C        0.36333       -13.16322         1.75295
   C        1.03542       -12.62921         0.71034
   S        0.83835       -11.01184         0.17249
   C        0.41019       -14.46738         2.31671
   C       -0.46078       -14.55340         3.40591
   C       -0.43836       -15.84359         3.98366
   C        0.42240       -16.67287         3.33736
   S        1.24369       -15.93626         2.00574
   C       -1.10687       -13.27448         3.58030
   C       -2.03573       -12.86798         4.56080
   C       -2.52991       -13.62448         5.57842
   C       -3.43270       -13.14115         6.55337
   C       -3.97909       -11.87134         6.69552
   C       -4.81276       -11.77667         7.80346
   C       -4.91717       -12.97868         8.52427
   S       -3.98105       -14.22737         7.82542
   C       -5.77340       -12.76513         9.63123
   C       -6.21054       -11.42809         9.61279
   C       -5.62745       -10.76330         8.46689
   C       -5.79347        -9.46439         8.07909
   C       -6.60321        -8.55661         8.79274
   N       -7.25780        -7.80227         9.35667
   C       -5.16366        -8.93982         6.93233
   N       -4.65034        -8.51584         5.99763
   C       -7.05757       -11.11759        10.68060
   C       -7.27573       -12.19229        11.51248
   S       -6.40893       -13.63096        10.95358
   C       -8.07466       -12.27100        12.70694
   C       -8.24661       -13.47988        13.36104
   C       -9.01248       -13.60155        14.52208
   C       -9.63375       -12.51154        15.06919
   C       -9.49187       -11.25576        14.44966
   N      -10.10553       -10.18539        14.99838
   C       -9.95744        -9.03040        14.41030
   C       -9.18259        -8.88914        13.24342
   N       -8.57966        -9.90777        12.69154
   C       -8.71221       -11.11813        13.26436
   H       -6.19150         1.24702         1.37760
   H       -6.74053        -0.83905         2.62346
   H       -5.39886        -2.84884         2.31219
   H       -1.55793         0.35310        -1.93495
   H       -2.99682         2.42741        -1.61378
   H       -1.93316        -2.75746        -0.86406
   H        0.54166        -8.43875        -0.62689
   H       -1.66377       -10.60352         2.89904
   H        1.75527       -13.18817         0.13364
   H       -1.01889       -16.16526         4.82833
   H        0.63479       -17.69982         3.56223
   H       -2.36826       -11.84196         4.48876
   H       -2.22710       -14.65436         5.68289
   H       -3.77028       -11.06119         6.02225
   H       -7.50256       -10.15785        10.86599
   H       -7.77344       -14.36435        12.95798
   H       -9.10981       -14.57253        14.98431
   H      -10.23235       -12.57627        15.96340
   H      -10.45663        -8.18438        14.86341
   H       -9.05339        -7.93257        12.75550
*
