# ORCA input file
# SCF done       -189.409416280535          0.000269130923
! CAM-B3LYP def2-SVP def2/J RIJCOSX Grid4 TightSCF
%maxcore 5000
%tddft
    Mode sTDDFT
    Ethresh 5.0
    maxcore 5000
end

%pal
  nprocs 6
  end
* xyz 0 1
   C       -1.70337        -6.48664         3.34738
   C       -2.85959        -6.93888         3.90517
   S       -2.55118        -8.25486         4.97753
   C       -0.85448        -8.20188         4.67935
   C       -0.55458        -7.21561         3.79597
   C        0.64185        -6.66879         3.15409
   O        1.79377        -7.03760         3.30133
   C        0.16509        -5.57261         2.29084
   C       -1.28012        -5.46175         2.41201
   C       -2.13064        -4.58275         1.79405
   C       -3.51947        -4.62012         2.03892
   N       -4.65107        -4.63740         2.22851
   C       -1.76761        -3.57367         0.88134
   N       -1.54044        -2.73251         0.13294
   C        0.95679        -4.77790         1.50179
   C        2.34738        -4.78013         1.31028
   C        2.97589        -3.86103         0.45972
   C        4.34716        -4.02492         0.42270
   C        4.77801        -5.08804         1.25389
   S        3.50667        -5.87193         2.07043
   C        6.18579        -5.16835         1.16060
   C        6.65135        -4.17092         0.28382
   C        5.50769        -3.42002        -0.21193
   C        5.52993        -2.36922        -1.08096
   C        4.35525        -1.70565        -1.49466
   N        3.40725        -1.15957        -1.83674
   C        6.73529        -1.87515        -1.62240
   N        7.71674        -1.47399        -2.05921
   C        8.03758        -4.16973         0.14793
   C        8.63562        -5.15701         0.91462
   S        7.45275        -6.10549         1.81265
   C       10.02409        -5.44194         1.04960
   C       10.48599        -6.44976         1.86391
   C       11.82453        -6.76319         2.06683
   C       12.89103        -6.01074         1.40424
   C       12.66947        -4.98655         0.55016
   S       11.10960        -4.41227         0.12485
   C       14.10138        -6.59551         1.86873
   C       13.82304        -7.63638         2.76080
   C       15.00707        -8.24270         3.23725
   C       16.11751        -7.66067         2.71282
   S       15.78389        -6.36055         1.62251
   C       12.39355        -7.75704         2.89563
   C       11.62790        -8.64796         3.67159
   C       12.07271        -9.57545         4.56527
   C       11.19689       -10.40826         5.29825
   C        9.81120       -10.49892         5.20389
   C        9.28118       -11.41440         6.10030
   C       10.25682       -12.04325         6.90061
   S       11.83503       -11.49575         6.52496
   C        9.61785       -12.93978         7.78252
   C        8.22066       -12.88118         7.53200
   C        7.96944       -11.92248         6.47199
   C        6.77038       -11.55134         5.93593
   C        6.68432       -10.58297         4.91394
   N        6.62561        -9.79093         4.08602
   C        5.54368       -12.09759         6.36773
   N        4.54006       -12.53258         6.71115
   C        7.50557       -13.72404         8.35789
   C        8.32392       -14.42571         9.25306
   S       10.02986       -14.01525         9.03830
   C        7.79429       -15.32616        10.18549
   C        8.41098       -16.06670        11.16438
   C        9.85092       -16.05155        11.46970
   O       10.72096       -15.42706        10.88681
   C       10.01909       -16.94095        12.62219
   C       11.03244       -17.37385        13.41400
   S       10.44213       -18.45389        14.62226
   C        8.81743       -18.32124        14.05540
   C        8.74397       -17.48254        12.98674
   C        7.73278       -16.96142        12.08584
   C        6.40471       -17.29822        12.14084
   C        5.92138       -18.19372        13.11713
   N        5.51288       -18.91886        13.90740
   C        5.39140       -16.83602        11.27970
   N        4.51831       -16.50275        10.61161
   H       -3.86584        -6.59801         3.76606
   H       -0.19764        -8.89338         5.16800
   H        0.45262        -4.01174         0.92420
   H        2.42305        -3.11829        -0.08818
   H        8.59694        -3.48998        -0.46941
   H        9.73308        -7.02624         2.38477
   H       13.46964        -4.44618         0.06950
   H       15.05591        -9.06590         3.92553
   H       17.14160        -7.91818         2.90034
   H       10.55874        -8.56118         3.54016
   H       13.12760        -9.68740         4.76063
   H        9.22644        -9.92593         4.50954
   H        6.43687       -13.84782         8.34388
   H        6.71792       -15.42801        10.10898
   H       12.07553       -17.13285        13.36932
   H        8.04126       -18.86846        14.55152
*
