# ORCA input file
# SCF done       -164.112625057595          0.000350160164
! CAM-B3LYP def2-SVP def2/J RIJCOSX Grid4 TightSCF
%maxcore 5000
%tddft
    Mode sTDDFT
    Ethresh 5.0
    maxcore 5000
end

%pal
  nprocs 6
  end
* xyz 0 1
   C       -1.23891         1.21168        -1.10027
   C       -1.11959        -0.01346        -1.70057
   C        0.11357        -0.60099        -2.05698
   N        1.08262        -1.12979        -2.37059
   C       -2.18706        -0.87407        -2.03572
   N       -2.99501        -1.63343        -2.33359
   C       -0.12733         2.08003        -0.72584
   C       -0.64562         3.22617        -0.07263
   C        0.14830         4.25262         0.37813
   C        1.52752         4.13765         0.18180
   C        2.04264         2.98167        -0.45239
   C        1.23603         1.94814        -0.91490
   S        3.77429         3.04207        -0.57900
   C        3.78253         4.60165         0.20086
   C        2.55176         5.05436         0.54228
  Br        5.40867         5.48575         0.49670
   C       -2.10825         3.11587         0.00808
   O       -2.85799         3.91672         0.53868
   C       -2.46832         1.87368        -0.69036
   C       -3.74062         1.46511        -0.98101
   C       -4.97380         2.03929        -0.61326
   S       -5.22054         3.40082         0.45433
   C       -6.94577         3.30017         0.32248
   C       -7.29135         2.26885        -0.56827
   C       -6.19371         1.55235        -1.04712
   N       -8.59512         1.88249        -0.97110
   O       -9.47121         2.72945        -0.99747
   O       -8.75571         0.72316        -1.29386
   C       -7.76382         4.16002         1.10669
   S       -9.34083         4.68496         0.55880
   C       -9.59267         5.55310         2.00321
   C       -8.57748         5.41985         2.90423
   C       -8.56314         6.03651         4.26283
   C       -7.49937         4.65464         2.38681
   C       -6.36336         4.37103         3.24728
   C       -5.07049         4.67374         3.03669
   C       -4.04916         4.32615         3.97270
   C       -2.73274         4.52811         3.75492
   C       -1.73157         4.14242         4.70825
   N       -2.10835         3.60022         5.85714
   N       -1.27721         3.24183         6.78503
   C        0.03616         3.37884         6.68066
   C        0.58329         3.93086         5.48744
   C       -0.33721         4.32811         4.46438
   N        0.28628         4.82692         3.40068
   S        1.87580         4.79370         3.67143
   N        1.84749         4.14855         5.14290
   C        0.83076         2.96640         7.78960
   C        2.19998         3.04744         7.94682
   C        2.59908         2.55155         9.18787
   C        1.51912         2.09270         9.96220
   S        0.01746         2.27346         9.17706
   C        2.03485         1.60920        11.19992
   C        3.42548         1.76754        11.20211
   C        3.83025         2.36779         9.94237
   C        5.09372         2.70105         9.54994
   C        5.36282         3.28765         8.29520
   N        5.59295         3.76421         7.27796
   C        6.21785         2.48653        10.37480
   N        7.13438         2.31716        11.04285
   C        4.01724         1.31123        12.39473
   C        3.08043         0.82478        13.25631
   S        1.46199         0.90785        12.64656
   H       -0.27445         5.11127         0.87344
   H        1.67685         1.09481        -1.40217
   H        2.36932         6.00112         1.01634
   H       -3.85206         0.58092        -1.59702
   H       -6.30111         0.70880        -1.70675
   H      -10.50204         6.10672         2.13469
   H       -9.42544         6.68411         4.39410
   H       -7.65450         6.61841         4.40770
   H       -8.59109         5.26276         5.02993
   H       -6.63531         3.92704         4.19989
   H       -4.75904         5.20687         2.15048
   H       -4.34564         3.85065         4.89824
   H       -2.38106         4.97427         2.83644
   H        2.84609         3.44910         7.18740
   H        5.06987         1.33732        12.60931
   H        3.23946         0.41302        14.23286
*
