# ORCA input file
# SCF done       -144.878857359340          0.000490979132
! CAM-B3LYP def2-SVP def2/J RIJCOSX Grid4 TightSCF
%maxcore 5000
%tddft
    Mode sTDDFT
    Ethresh 5.0
    maxcore 5000
end

%pal
  nprocs 6
  end
* xyz 0 1
   C       -5.26246         1.11011        -7.20300
   C       -3.94159         0.92439        -6.93070
   C       -3.48663         1.83437        -5.95672
   C       -4.49672         2.69443        -5.51599
   S       -5.98785         2.39078        -6.28748
   C       -3.94806         3.57551        -4.53634
   C       -2.59634         3.26346        -4.36706
   C       -2.25713         2.15841        -5.25369
   C       -1.03999         1.55753        -5.39211
   C        0.08681         1.96525        -4.64838
   N        1.00500         2.29431        -4.04495
   C       -0.82491         0.48972        -6.28806
   N       -0.64381        -0.37923        -7.01417
   C       -1.96514         4.07658        -3.41783
   C       -2.82296         5.00116        -2.86406
   S       -4.44335         4.86069        -3.53332
   C       -2.54810         5.99949        -1.85647
   C       -1.22996         6.19364        -1.38933
   C       -0.91688         7.12272        -0.42628
   C       -1.95498         7.89028         0.09353
   C       -3.27511         7.70174        -0.37843
   C       -3.59183         6.77166        -1.34287
   O       -4.07151         8.56464         0.28806
   C       -3.23692         9.23159         1.12243
   N       -1.98694         8.86929         1.04319
   C       -3.72657        10.24382         2.02710
   C       -2.84794        10.82634         2.92214
   C       -3.27120        11.79274         3.83122
   C       -4.58287        12.22139         3.88221
   C       -5.51177        11.64654         2.97150
   N       -6.80839        12.01350         3.02171
   C       -7.63649        11.46471         2.17624
   C       -7.20530        10.52018         1.22484
   N       -5.96372        10.12462         1.16590
   C       -5.08630        10.65807         2.03633
   C       -5.01873        13.21617         4.86865
   C       -5.89307        14.25286         4.49703
   C       -6.34678        15.19181         5.39513
   C       -5.90850        15.08026         6.70934
   C       -5.01420        14.05173         7.07844
   C       -4.55573        13.11302         6.17788
   O       -4.75334        14.18991         8.40153
   C       -5.48256        15.26621         8.77617
   N       -6.17763        15.82099         7.82789
   C       -5.46830        15.68342        10.14750
   N       -4.91816        15.02333        11.13290
   C       -5.23422        15.68747        12.26760
   C       -6.01535        16.76889        11.97822
   N       -6.14949        16.79462        10.61248
   C       -6.92452        17.74704         9.91088
   O       -8.03234        18.04066        10.25579
   N       -6.27355        18.33257         8.84448
   C       -6.89840        19.02494         7.82636
   N       -6.06122        19.44157         6.94255
   C       -4.82309        19.03452         7.36669
   C       -4.92754        18.34280         8.52760
   H       -5.87370         0.56809        -7.89634
   H       -3.33375         0.17560        -7.40465
   H       -0.93041         3.98371        -3.14603
   H       -0.43759         5.59334        -1.80611
   H        0.09419         7.25851        -0.07987
   H       -4.60857         6.64567        -1.68059
   H       -1.81700        10.50981         2.90111
   H       -2.54788        12.22960         4.50340
   H       -8.67142        11.77271         2.24294
   H       -7.88825        10.08195         0.50967
   H       -6.21033        14.30899         3.46879
   H       -7.01424        15.98592         5.10476
   H       -3.89749        12.31759         6.48725
   H       -4.88638        15.34281        13.21998
   H       -6.46373        17.52053        12.59393
   H       -7.96020        19.16280         7.80906
   H       -3.94612        19.27435         6.80025
   H       -4.18536        17.89398         9.15445
*
