# ORCA input file
# SCF done       -199.584979069917          0.000573474408
! CAM-B3LYP def2-SVP def2/J RIJCOSX Grid4 TightSCF
%maxcore 5000
%tddft
    Mode sTDDFT
    Ethresh 5.0
    maxcore 5000
end

%pal
  nprocs 6
  end
* xyz 0 1
   C       -6.20039         1.97187        -5.36417
   C       -5.77493         2.40534        -6.58878
   F       -5.89775         3.69674        -6.92624
   C       -5.20434         1.50504        -7.50945
   F       -4.79548         1.95731        -8.70380
   C       -5.06731         0.18233        -7.19320
   C       -5.49704        -0.29451        -5.94005
   C       -6.07327         0.61486        -5.00738
   C       -6.51189         0.15922        -3.74174
   C       -6.38088        -1.16525        -3.42063
   C       -5.81002        -2.06508        -4.36097
   C       -5.37319        -1.65697        -5.58774
   C       -5.79816        -3.42230        -3.79040
   O       -5.35213        -4.41101        -4.36041
   C       -6.41314        -3.31595        -2.46273
   C       -6.73526        -1.92290        -2.22128
   C       -7.25391        -1.36468        -1.07830
   C       -7.57920        -2.04024         0.11540
   N       -7.86782        -2.49734         1.12996
   C       -7.52506         0.01108        -0.92743
   N       -7.77075         1.11609        -0.73322
   C       -6.69680        -4.33184        -1.56916
   C       -6.46324        -5.70680        -1.63160
   N       -5.83032        -6.38143        -2.65288
   C       -5.80113        -7.69031        -2.34267
   C       -5.38113        -8.93888        -2.78766
   C       -5.76703        -9.85727        -1.80180
   N       -6.40587        -9.19524        -0.77480
   C       -6.43916        -7.86675        -1.07363
   C       -6.85101        -6.63167        -0.62536
   C       -5.54688       -11.25621        -1.83514
   C       -5.98093       -12.15284        -0.90976
   C       -5.74999       -13.54522        -0.94768
   S       -6.49375       -14.57738         0.26127
   C       -5.82316       -16.05592        -0.37604
   C       -5.03467       -15.75193        -1.49203
   C       -5.00697       -14.35217        -1.79749
   N       -4.21385       -14.17709        -2.88709
   C       -3.74555       -15.41016        -3.27249
   N       -2.89326       -15.50684        -4.38348
   O       -2.61657       -14.45740        -4.94707
   O       -2.49204       -16.60730        -4.70695
   C       -4.22617       -16.40308        -2.44650
   C       -6.10946       -17.30181         0.21420
   N       -6.94595       -17.41703         1.30566
   C       -7.04249       -18.73065         1.63873
   C       -7.63858       -19.62183         2.51723
   C       -7.18485       -20.90060         2.14378
   N       -6.34763       -20.77796         1.04751
   C       -6.23592       -19.46700         0.72641
   C       -5.65312       -18.57561        -0.16404
   C       -7.48815       -22.18209         2.65138
   C       -8.16393       -22.49318         3.79639
   C       -8.47614       -21.60656         4.84399
   C       -9.34046       -21.83538         5.88095
   C       -9.24528       -21.04039         7.12691
   O       -8.61093       -20.02107         7.29295
   C      -10.04892       -21.78092         8.12359
   C      -10.21125       -21.53081         9.45499
   C      -11.01032       -22.40492        10.22683
   C      -11.62506       -23.52685         9.59965
   C      -12.41356       -24.39926        10.37598
   C      -12.58610       -24.16743        11.71182
   C      -11.97971       -23.05653        12.33056
   C      -11.20816       -22.19262        11.60482
   F      -12.16553       -22.85319        13.64261
   F      -13.33650       -24.99842        12.44825
   C      -11.44688       -23.75509         8.21536
   C      -10.67390       -22.89182         7.48714
   C      -10.34523       -22.85303         6.06305
   C      -11.02204       -23.51923         5.07107
   C      -10.89547       -23.21632         3.70010
   N      -10.87247       -22.96324         2.58032
   C      -12.00703       -24.49669         5.31469
   N      -12.79753       -25.31658         5.46130
   H       -6.63457         2.67493        -4.67065
   H       -4.62867        -0.49473        -7.90930
   H       -6.94403         0.87499        -3.06212
   H       -4.94192        -2.36374        -6.28026
   H       -7.19692        -4.03532        -0.65737
   H       -5.48745        -5.89565        -3.48496
   H       -4.86949        -9.18063        -3.69697
   H       -6.76518        -9.62709         0.05752
   H       -7.35932        -6.37477         0.28224
   H       -4.99528       -11.60127        -2.69598
   H       -6.56749       -11.81407        -0.06647
   H       -3.95422       -13.32676        -3.36083
   H       -4.00450       -17.44486        -2.54349
   H       -7.39991       -16.64250         1.75897
   H       -8.34834       -19.40363         3.28726
   H       -5.89624       -21.55072         0.58876
   H       -4.99257       -18.78820        -0.97740
   H       -7.18119       -23.00723         2.02041
   H       -8.43111       -23.53218         3.93987
   H       -7.89328       -20.69614         4.92262
   H       -9.73607       -20.67805         9.91559
   H      -12.88749       -25.25277         9.91690
   H      -10.75064       -21.34691        12.09389
   H      -11.92098       -24.61369         7.76711
*
