# ORCA input file
# SCF done       -240.064225984882          0.000635561600
! CAM-B3LYP def2-SVP def2/J RIJCOSX Grid4 TightSCF
%maxcore 5000
%tddft
    Mode sTDDFT
    Ethresh 5.0
    maxcore 5000
end

%pal
  nprocs 6
  end
* xyz 0 1
   C       -7.11571         2.11045        -2.91496
   C       -7.15768         2.35650        -4.25860
   F       -7.33285         3.60326        -4.70948
   C       -7.01721         1.30317        -5.18651
   F       -7.06230         1.57457        -6.49582
   C       -6.83695         0.01840        -4.75688
   C       -6.78877        -0.26749        -3.37816
   C       -6.93037         0.79636        -2.43893
   C       -6.88209         0.53412        -1.05184
   C       -6.69700        -0.75221        -0.61327
   C       -6.55573        -1.80932        -1.55947
   C       -6.60028        -1.58442        -2.90699
   C       -6.35775        -3.07929        -0.84985
   O       -6.24619        -4.19191        -1.31578
   C       -6.32362        -2.72446         0.59992
   C       -6.59064        -1.29684         0.73464
   C       -6.72245        -0.60610         1.90319
   C       -6.59843        -1.17634         3.19076
   N       -6.49179        -1.57398         4.26108
   C       -7.00287         0.77709         1.97733
   N       -7.23577         1.89387         2.09420
   C       -6.04070        -3.63073         1.54813
   C       -5.75680        -5.02957         1.23838
   C       -4.57557        -5.46594         0.63467
   C       -3.49891        -4.54879         0.21174
   O       -3.46627        -3.35819         0.31696
   S       -2.17340        -5.51104        -0.50421
   C       -2.99886        -7.07539        -0.19541
   O       -2.48590        -8.13304        -0.41922
   C       -4.32888        -6.81446         0.38276
   C       -5.25169        -7.82099         0.72209
   C       -6.43871        -7.38098         1.32767
   C       -6.67227        -6.03020         1.57143
   C       -7.98570        -5.70698         2.15061
   O       -8.41006        -4.61858         2.40485
   S       -8.88962        -7.22978         2.39655
   C       -7.58215        -8.24726         1.68902
   O       -7.70262        -9.42627         1.54316
   C       -4.98636        -9.24104         0.50975
   C       -5.00865       -10.10819         1.56511
   C       -4.70641       -11.46585         1.45809
   C       -4.26528       -12.06304         0.20165
   C       -4.22120       -11.38257        -0.97031
   S       -4.63619        -9.73359        -1.12547
   C       -3.91741       -13.40376         0.52949
   C       -4.11349       -13.62851         1.89869
   C       -3.80469       -14.95765         2.26743
   C       -3.38290       -15.68338         1.19908
   S       -3.34788       -14.79938        -0.28963
   C       -4.62900       -12.42378         2.48738
   C       -5.03444       -12.16362         3.81730
   C       -4.60155       -12.83908         4.91044
   C       -4.98715       -12.57527         6.25723
   C       -4.93855       -13.61284         7.22693
   C       -4.47392       -14.97847         6.93538
   O       -4.11358       -15.45599         5.89953
   S       -4.53026       -15.96629         8.44327
   C       -5.20606       -14.63161         9.40781
   O       -5.45922       -14.73491        10.57369
   C       -5.35879       -13.44100         8.54491
   C       -5.89832       -12.23077         8.99361
   C       -5.88117       -11.18549         8.06049
   C       -5.40917       -11.31209         6.76120
   C       -5.27354       -10.00399         6.08701
   O       -4.77791        -9.72381         5.03496
   S       -5.94631        -8.70313         7.14133
   C       -6.24432        -9.82090         8.48830
   O       -6.64461        -9.49227         9.56570
   C       -6.47570       -12.01948        10.31045
   C       -5.92061       -12.12979        11.52863
   C       -6.82178       -12.12521        12.72672
   O       -7.98782       -11.82181        12.73986
   C       -5.99147       -12.62810        13.83356
   C       -6.36219       -12.90454        15.11873
   C       -5.39879       -13.41207        16.01765
   C       -4.06729       -13.63770        15.55996
   C       -3.11094       -14.15102        16.46002
   C       -3.45896       -14.42321        17.75303
   C       -4.77588       -14.19781        18.20486
   C       -5.72642       -13.70335        17.35637
   F       -5.08729       -14.47389        19.47700
   F       -2.54990       -14.90758        18.60738
   C       -3.71314       -13.34391        14.22463
   C       -4.65930       -12.83452        13.37262
   C       -4.56575       -12.41420        11.97978
   C       -3.40449       -12.20398        11.29178
   C       -3.31314       -11.62743        10.00987
   N       -3.15791       -11.13930         8.98232
   C       -2.11818       -12.48354        11.80695
   N       -1.04919       -12.69950        12.16190
   H       -7.22481         2.92765        -2.21916
   H       -6.73074        -0.77579        -5.47914
   H       -6.98796         1.36010        -0.36719
   H       -6.48882        -2.40234        -3.60257
   H       -6.02542        -3.37050         2.59836
   H       -5.20423        -9.70293         2.54800
   H       -3.91783       -11.84166        -1.89822
   H       -3.89070       -15.36635         3.25758
   H       -3.08037       -16.71213         1.18531
   H       -5.75033       -11.36344         3.92355
   H       -3.93241       -13.67131         4.76184
   H       -7.53174       -11.75768        10.31206
   H       -7.37761       -12.73657        15.44388
   H       -2.09847       -14.32675        16.13157
   H       -6.72926       -13.53684        17.71729
   H       -2.70181       -13.53729        13.90521
*
