# ORCA input file
# SCF done       -188.858276622378          0.000771596401
! CAM-B3LYP def2-SVP def2/J RIJCOSX Grid4 TightSCF
%maxcore 5000
%tddft
    Mode sTDDFT
    Ethresh 5.0
    maxcore 5000
end

%pal
  nprocs 6
  end
* xyz 0 1
   C       -2.46629         9.88659         0.29240
   C       -2.16547        10.55778        -0.86233
   C       -2.99896        11.54362        -1.43008
   N       -3.64611        12.33925        -1.94576
   C       -0.94043        10.46028        -1.55102
   N        0.05699        10.49711        -2.11835
   C       -3.54931        10.25860         1.20024
   C       -3.22521         9.78146         2.50363
   C       -4.02574        10.03341         3.58010
   C       -5.21573        10.77247         3.39524
   C       -5.55815        11.22982         2.09009
   C       -4.70369        10.96306         0.99510
   C       -6.75334        11.95663         1.91771
   C       -7.56989        12.22481         2.98240
   C       -7.23057        11.77656         4.26762
   C       -6.07881        11.06584         4.46940
   C       -1.97603         9.00626         2.43553
   O       -1.36778         8.49194         3.34965
   C       -1.64309         8.91896         0.98738
   C       -0.82840         7.90216         0.59272
   C       -0.61791         7.28585        -0.65914
   S       -1.50967         7.66958        -2.11257
   C       -0.69058         6.44972        -2.98185
   C        0.21510         5.76371        -2.22190
   C        0.24671         6.22046        -0.88907
   C        1.09071         5.55296         0.14411
   C        2.28032         4.83609        -0.49319
   C        1.76146         3.90185        -1.59632
   C        1.10987         4.68069        -2.73597
   C        3.34317         5.78055        -1.02455
   C        4.58245         5.33850        -1.21432
   C        3.03121         7.18225        -1.32152
   S        2.61738         8.28925        -0.03417
   C        2.61861         9.61902        -1.11693
   C        2.91263         9.25070        -2.38965
   C        3.15729         7.85444        -2.50489
   C        3.49244         7.26887        -3.83786
   C        4.32317         8.28911        -4.63214
   C        3.45288         9.53228        -4.84035
   C        3.03057        10.20844        -3.53189
   C        5.65128         8.54013        -3.94204
   C        6.45679         7.53864        -3.60211
   C        6.12489         9.90651        -3.70332
   S        6.56086        10.92148        -5.05102
   C        7.17992        12.12554        -3.99006
   C        7.05935        11.77504        -2.68418
   C        6.44565        10.50319        -2.51755
   C        6.10624         9.96774        -1.16269
   C        6.99152        10.58359        -0.06903
   C        6.96426        12.10639        -0.20358
   C        7.58958        12.55571        -1.52361
   C        6.52267        10.08177         1.28421
   C        6.29544        10.85889         2.34349
   C        6.41968         8.63725         1.36167
   C        5.47330         7.89820         1.98694
   C        5.41883         6.43991         1.98955
   C        6.38756         5.58118         1.54366
   C        6.25786         4.17628         1.53992
   N        6.21593         3.02951         1.49298
   C        7.64018         5.94430         1.00548
   N        8.68221         6.13489         0.56063
   C        4.13569         6.04050         2.54725
   C        3.39952         7.20973         2.88718
   C        4.21305         8.40818         2.60908
   O        3.89775         9.55289         2.83858
   C        2.13189         7.14475         3.39136
   C        1.53372         5.87913         3.58716
   C        2.27573         4.70202         3.27974
   C        3.58538         4.80260         2.76005
   C        1.66922         3.44523         3.48261
   C        0.38843         3.35542         3.95539
   C       -0.34454         4.51651         4.24518
   C        0.21557         5.75309         4.06898
   H       -3.75612         9.67403         4.56222
   H       -4.99085        11.31412         0.01629
   H       -7.00814        12.30330         0.92696
   H       -8.48177        12.78521         2.84024
   H       -7.88625        11.99722         5.09666
   H       -5.81222        10.71799         5.45684
   H       -0.32385         7.40976         1.41943
   H       -0.92552         6.29846        -4.01752
   H        0.47598         4.81125         0.66782
   H        1.43980         6.26469         0.89037
   H        2.75163         4.21260         0.27429
   H        1.03162         3.22122        -1.15186
   H        2.58299         3.30313        -1.99146
   H        0.54438         4.00408        -3.38090
   H        1.88957         5.13966        -3.34796
   H        4.85808         4.31704        -1.00912
   H        5.36339         5.98429        -1.57883
   H        2.39200        10.59518        -0.73785
   H        2.56649         7.07709        -4.39170
   H        4.01868         6.32187        -3.72262
   H        4.54175         7.86254        -5.61965
   H        2.56045         9.21386        -5.38477
   H        3.97301        10.25496        -5.47018
   H        2.07008        10.70993        -3.66818
   H        3.75529        10.97942        -3.25776
   H        6.20938         6.50829        -3.79141
   H        7.41367         7.71796        -3.14155
   H        7.60515        13.01870        -4.40268
   H        6.17730         8.87831        -1.16510
   H        5.06310        10.21834        -0.93961
   H        8.02259        10.23458        -0.21552
   H        7.52315        12.56862         0.61120
   H        5.92830        12.44776        -0.14985
   H        8.67394        12.40531        -1.47663
   H        7.41815        13.62359        -1.67658
   H        6.38985        11.92871         2.30825
   H        6.02753        10.44228         3.29709
   H        7.17827         8.10764         0.79688
   H        1.58275         8.04397         3.62765
   H        4.12084         3.89315         2.53821
   H        2.23619         2.55438         3.25365
   H       -0.06806         2.38816         4.10569
   H       -1.35681         4.42629         4.61018
   H       -0.34473         6.65146         4.27818
*
