# ORCA input file
# SCF done       -176.641455285358          0.000472200907
! CAM-B3LYP def2-SVP def2/J RIJCOSX Grid4 TightSCF
%maxcore 5000
%tddft
    Mode sTDDFT
    Ethresh 5.0
    maxcore 5000
end

%pal
  nprocs 6
  end
* xyz 0 1
   C        2.01246        -1.38316         3.38362
   C        1.12988        -2.32936         4.12775
   O        1.18545        -2.56468         5.31445
   C        0.18314        -2.84539         3.12469
   C        0.53739        -2.36721         1.86237
   C        1.76145        -1.57779         1.97193
   C        2.62994        -1.31591         0.94531
   C        3.92800        -0.79705         1.12872
   N        5.00701        -0.41762         1.22427
   C        2.37477        -1.61949        -0.40814
   N        2.21725        -1.82467        -1.52628
   C       -0.22794        -2.69480         0.73570
   C       -1.32437        -3.50139         0.89649
   C       -1.69991        -4.01585         2.15683
   C       -0.93365        -3.68288         3.31178
   C       -1.31304        -4.19629         4.56871
   C       -2.40698        -5.01002         4.67627
   C       -3.16477        -5.34241         3.54177
   C       -2.82085        -4.85681         2.31005
   C        2.78765        -0.51710         4.08606
   C        3.42837         0.67117         3.65797
   C        3.12786         1.50451         2.59596
   C        3.97574         2.60664         2.54181
   C        4.94506         2.62076         3.55578
   S        4.77020         1.28087         4.61377
   C        5.80704         3.71534         3.44731
   C        5.48603         4.54037         2.36171
   S        4.11243         3.96464         1.45983
   C        6.33603         5.63842         2.22581
   C        7.31171         5.64996         3.20089
   S        7.17917         4.29665         4.30809
   C        8.35604         6.59999         3.36064
   C        9.38742         6.58225         4.27744
   F        9.53171         5.61990         5.19445
   C       10.27351         7.66205         4.15767
   F       11.33741         7.82261         4.95160
   C        9.94461         8.54763         3.15163
   S        8.50122         8.00525         2.34276
   C       10.62864         9.73452         2.77399
   C       10.23347        10.66475         1.83515
   C       11.15254        11.70925         1.72696
   C       12.25664        11.57202         2.57812
   S       12.15475        10.14446         3.53382
   C       13.16252        12.62763         2.44793
   C       12.74380        13.57321         1.49942
   S       11.22086        13.15748         0.76248
   C       13.63603        14.62701         1.32899
   C       14.75003        14.50066         2.14043
   S       14.66468        13.06398         3.15159
   C       15.86668        15.35040         2.31513
   C       16.34813        16.35820         1.54077
   C       17.29956        17.32979         2.15765
   O       17.87059        17.18528         3.21591
   C       17.33525        18.47680         1.23558
   C       16.58047        18.18222         0.09957
   C       16.08809        16.80930         0.19197
   C       15.70876        16.03183        -0.87084
   C       15.52395        14.63712        -0.78632
   N       15.39960        13.49624        -0.76893
   C       15.55060        16.50972        -2.18809
   N       15.38402        16.84419        -3.27340
   C       16.42645        19.13189        -0.91853
   C       17.04216        20.34907        -0.78210
   C       17.83224        20.66957         0.34359
   C       17.98789        19.71500         1.39057
   C       18.77654        20.03754         2.51370
   C       19.39035        21.25695         2.59412
   C       19.24129        22.20113         1.56542
   C       18.47917        21.91616         0.46580
   H        0.03091        -2.31289        -0.23843
   H       -1.92768        -3.76037         0.03842
   H       -0.72345        -3.93425         5.43296
   H       -2.69643        -5.40428         5.63885
   H       -4.02466        -5.98672         3.65014
   H       -3.40193        -5.11177         1.43562
   H        2.88038        -0.74649         5.14381
   H        2.30878         1.33901         1.92008
   H        6.26122         6.38734         1.45909
   H        9.32422        10.57987         1.26916
   H       13.46005        15.46369         0.67830
   H       16.40107        15.21964         3.25252
   H       15.82687        18.91785        -1.78834
   H       16.92930        21.09456        -1.55598
   H       18.88349        19.30431         3.29737
   H       19.99686        21.50266         3.45295
   H       19.73529        23.15775         1.65004
   H       18.36383        22.64100        -0.32703
*
