# ORCA input file
# SCF done       -209.690781123554          0.000390069772
! CAM-B3LYP def2-SVP def2/J RIJCOSX Grid4 TightSCF
%maxcore 5000
%tddft
    Mode sTDDFT
    Ethresh 5.0
    maxcore 5000
end

%pal
  nprocs 6
  end
* xyz 0 1
   C        9.53302        -1.89187         2.18260
   C        9.61715        -1.48927         3.61595
   O        9.41593        -2.20873         4.56963
   C        9.93603        -0.05064         3.59424
   C       10.16708         0.35385         2.27905
   C       10.07704        -0.80596         1.39575
   C       10.63957        -0.90134         0.15023
   C       10.77838        -2.11611        -0.55256
   N       10.96189        -3.08272        -1.14340
   C       11.22239         0.17797        -0.54426
   N       11.68612         1.02192        -1.16936
   C       10.45935         1.69222         1.98588
   C       10.51826         2.59423         3.01607
   C       10.30340         2.21489         4.35926
   C       10.00265         0.85656         4.66935
   C        9.78765         0.48173         6.01130
   C        9.86855         1.41590         7.00676
   C       10.16378         2.75565         6.70705
   C       10.37622         3.14752         5.41386
   C        8.91532        -3.05851         1.86183
   C        8.39147        -3.47889         0.61418
   C        8.02573        -2.73754        -0.47826
   C        7.48163        -3.49631        -1.53206
   C        7.42303        -4.88531        -1.23898
   S        8.03302        -5.17681         0.37519
   C        6.93737        -5.79279        -2.16705
   O        6.80890        -7.13624        -2.05729
   C        7.24873        -7.80119        -0.89605
   C        6.50741        -5.25903        -3.40123
   C        6.57305        -3.87159        -3.69568
   C        7.05715        -2.96271        -2.76977
   O        7.18501        -1.61889        -2.87844
   C        6.89268        -0.97303        -4.09611
   S        5.96697        -3.57438        -5.31497
   C        5.64072        -5.27547        -5.55930
   C        5.97649        -6.02199        -4.46657
   C        5.08910        -5.71537        -6.79682
   C        4.66840        -6.98173        -7.14959
   F        4.71807        -8.03522        -6.32501
   C        4.17312        -7.06952        -8.45923
   F        3.72034        -8.21605        -8.98150
   C        4.20403        -5.87513        -9.15072
   S        4.85838        -4.62981        -8.13336
   C        3.79738        -5.61029       -10.49088
   C        3.20208        -6.47063       -11.37313
   C        2.94777        -5.88205       -12.63260
   C        3.36950        -4.53910       -12.68693
   S        4.06253        -4.01910       -11.18127
   C        3.23880        -3.73916       -13.81237
   O        3.69019        -2.46484       -13.68274
   C        3.10845        -1.40881       -14.41659
   C        2.68960        -4.35362       -14.95539
   C        2.22366        -5.70778       -14.89196
   C        2.32774        -6.48554       -13.74937
   O        1.92831        -7.76233       -13.54326
   C        1.20343        -8.46621       -14.52472
   S        1.58770        -6.20257       -16.44760
   C        1.95027        -4.64902       -17.15912
   C        2.53173        -3.80679       -16.24741
   C        1.71324        -4.46026       -18.54302
   C        1.69074        -3.31423       -19.27341
   C        1.85686        -3.40520       -20.75395
   O        1.74812        -4.41036       -21.42025
   C        2.22430        -2.04451       -21.18499
   C        2.14355        -1.17571       -20.09626
   C        1.65835        -1.91012       -18.93099
   C        1.05704        -1.34932       -17.83401
   C        0.36078        -2.09660       -16.86310
   N       -0.23809        -2.65581       -16.05900
   C        1.00194         0.03454       -17.57365
   N        0.95482         1.14438       -17.28361
   C        2.47904         0.17705       -20.23608
   C        2.88428         0.63045       -21.46449
   C        2.96273        -0.21898       -22.58978
   C        2.62554        -1.59797       -22.45861
   C        2.70551        -2.44293       -23.58433
   C        3.10263        -1.94084       -24.79277
   C        3.43677        -0.58355       -24.92774
   C        3.36933         0.25886       -23.85217
   H       10.62260         2.01198         0.96950
   H       10.73604         3.63166         2.80672
   H        9.56079        -0.55000         6.22888
   H        9.70495         1.12822         8.03456
   H       10.22157         3.47678         7.50895
   H       10.60423         4.17771         5.18106
   H        8.74195        -3.72888         2.69844
   H        8.09492        -1.66649        -0.53019
   H        6.69307        -7.48085        -0.01100
   H        8.31884        -7.65642        -0.72890
   H        7.05266        -8.85643        -1.08085
   H        7.51083        -1.35387        -4.91254
   H        7.12810         0.07682        -3.92670
   H        5.83645        -1.06834        -4.36111
   H        5.86053        -7.08737        -4.40488
   H        2.94894        -7.48944       -11.14882
   H        2.05771        -1.60171       -14.64245
   H        3.66449        -1.21553       -15.33934
   H        3.18262        -0.52699       -13.77923
   H        0.94653        -9.41694       -14.05929
   H        1.80516        -8.65515       -15.41739
   H        0.28606        -7.94212       -14.80361
   H        2.90829        -2.84318       -16.53328
   H        1.60707        -5.36988       -19.12699
   H        2.43322         0.84809       -19.39360
   H        3.15408         1.66929       -21.58844
   H        2.44739        -3.48365       -23.46806
   H        3.16247        -2.58780       -25.65509
   H        3.74895        -0.20900       -25.89135
   H        3.62532         1.30356       -23.95397
*
