# ORCA input file
# SCF done       -251.486269016461          0.000430673362
! CAM-B3LYP def2-SVP def2/J RIJCOSX Grid4 TightSCF
%maxcore 5000
%tddft
    Mode sTDDFT
    Ethresh 5.0
    maxcore 5000
end

%pal
  nprocs 6
  end
* xyz 0 1
   C        6.63574         2.18258         0.80365
   C        6.72526         2.57676         2.24139
   O        6.58197         1.84026         3.19123
   C        7.07690         4.00803         2.22584
   C        7.05310         4.47741         0.91205
   C        6.61266         3.40391         0.02581
   C        6.06571         3.58095        -1.21858
   C        5.36814         2.56841        -1.91147
   N        4.75710         1.79301        -2.49611
   C        6.10524         4.78502        -1.94662
   N        6.15739         5.71549        -2.61877
   C        7.38855         5.80654         0.62358
   C        7.73625         6.63685         1.65693
   C        7.75723         6.19708         2.99870
   C        7.42076         4.84589         3.30412
   C        7.44700         4.40978         4.64459
   C        7.79126         5.27871         5.64290
   C        8.12237         6.61114         5.34795
   C        8.10640         7.06116         4.05631
   C        6.76466         0.86642         0.48816
   C        7.09334         0.26559        -0.75216
   C        7.55537         0.85641        -1.89924
   C        7.81450        -0.03851        -2.95371
   C        8.15922         0.27331        -4.29000
   C        8.22259         1.62552        -4.79855
   C        7.88870         2.05170        -6.05845
   C        8.02003         3.43970        -6.24351
   C        8.46408         4.09886        -5.13866
   S        8.73637         2.99047        -3.83678
   C        8.65975         5.55432        -4.93322
   C        8.37690        -0.82148        -5.12493
   C        8.24981        -2.16866        -4.70099
   C        7.79254        -2.47059        -3.40032
   C        7.59677        -1.38487        -2.55545
   S        7.02476        -1.47775        -0.91581
   C        7.54189        -3.83610        -2.99485
   C        6.95903        -4.83726        -3.72269
   C        6.86885        -6.05547        -3.02286
   C        7.38640        -5.99727        -1.76495
   S        7.98827        -4.41116        -1.41140
   C        7.47543        -7.07882        -0.75073
   C        8.65987        -3.08308        -5.70130
   C        9.04969        -2.47201        -6.85673
   S        8.92022        -0.73191        -6.77642
   C        9.52846        -3.03468        -8.08888
   C        9.87379        -4.33125        -8.29968
   C       10.37304        -4.74383        -9.57594
   C       10.73627        -6.05476        -9.83355
   C       11.23019        -6.44783       -11.08674
   N       11.63224        -6.75500       -12.11867
   C       10.62300        -7.05595        -8.85699
   N       10.52219        -7.86840        -8.05042
   C       10.46960        -3.72148       -10.57280
   C       10.08997        -2.44958       -10.28528
   O        9.62618        -2.09794        -9.06247
   C       10.08709        -1.33919       -11.19717
   C       10.62612        -1.22815       -12.44545
   C       10.39650         0.03664       -13.03992
   C       10.86509         0.50446       -14.28599
   C       11.60214        -0.35836       -15.18454
   C       11.35110        -1.66587       -15.49807
   C       12.27050        -2.20391       -16.41888
   C       13.22943        -1.31870       -16.80661
   S       13.00233         0.22088       -16.04421
   C       14.36029        -1.53243       -17.74579
   C       10.56862         1.82685       -14.59848
   C        9.80472         2.67208       -13.75310
   C        9.35211         2.21243       -12.49880
   C        9.66063         0.89474       -12.18330
   S        9.26728         0.11479       -10.67920
   C        8.66147         3.06887       -11.55883
   C        7.61992         2.76148       -10.72821
   C        7.23926         3.82905        -9.89188
   C        7.99921         4.94778       -10.05591
   S        9.19777         4.70735       -11.28300
   C        7.93427         6.23919        -9.32406
   C        9.57102         3.93166       -14.34012
   C       10.16226         4.09196       -15.56661
   S       11.00581         2.64132       -16.07013
   C       10.10472         5.19609       -16.45610
   C        9.71787         6.47422       -16.21343
   C        9.32718         7.34050       -17.36459
   O        9.58648         7.13549       -18.52916
   C        8.53006         8.42889       -16.77159
   C        8.55409         8.31972       -15.38031
   C        9.42561         7.21184       -15.00125
   C       10.04375         7.06012       -13.78842
   C       11.11700         6.16661       -13.58311
   N       12.02754         5.49443       -13.39572
   C        9.72495         7.80385       -12.63597
   N        9.46656         8.34656       -11.65731
   C        7.84056         9.22332       -14.58208
   C        7.12539        10.21967       -15.19358
   C        7.09381        10.36803       -16.59770
   C        7.81089         9.45116       -17.42053
   C        7.77468         9.60037       -18.82190
   C        7.05890        10.62031       -19.38554
   C        6.35223        11.52766       -18.57986
   C        6.36764        11.40511       -17.21749
   H        7.38818         6.16811        -0.39182
   H        8.00472         7.66311         1.45154
   H        7.19152         3.38406         4.85879
   H        7.81121         4.94449         6.66940
   H        8.39147         7.27982         6.15217
   H        8.36053         8.08598         3.82707
   H        6.68253         0.18831         1.33222
   H        7.75643         1.90662        -1.96072
   H        7.50792         1.40059        -6.82380
   H        7.79152         3.93407        -7.16998
   H        8.58406         6.07957        -5.88201
   H        9.63104         5.75979        -4.48542
   H        7.89104         5.93793        -4.25841
   H        6.56425        -4.69173        -4.71248
   H        6.43457        -6.94624        -3.44064
   H        7.05066        -7.99711        -1.14863
   H        6.93457        -6.80255         0.15400
   H        8.51339        -7.26218        -0.47427
   H        8.68366        -4.14656        -5.55461
   H        9.78717        -5.05377        -7.50553
   H       10.83105        -3.97269       -11.55587
   H       11.20091        -2.00559       -12.91240
   H       10.50569        -2.21173       -15.11850
   H       12.22097        -3.21567       -16.78003
   H       15.31285        -1.35544       -17.24710
   H       14.29453        -0.84525       -18.58890
   H       14.34435        -2.55278       -18.12081
   H        7.11502         1.81235       -10.74113
   H        6.42063         3.76689        -9.19630
   H        8.71294         6.27731        -8.56015
   H        6.96664         6.35267        -8.84007
   H        8.10299         7.07594        -9.99990
   H        8.92947         4.67131       -13.89792
   H       10.33120         4.97648       -17.49500
   H        7.84271         9.13173       -13.50805
   H        6.56503        10.92177       -14.59312
   H        8.32109         8.89714       -19.43027
   H        7.03242        10.73516       -20.45879
   H        5.79407        12.32580       -19.04646
   H        5.82486        12.10243       -16.59581
*
