# ORCA input file
# SCF done       -196.190004625118          0.000969933460
! CAM-B3LYP def2-SVP def2/J RIJCOSX Grid4 TightSCF
%maxcore 5000
%tddft
    Mode sTDDFT
    Ethresh 5.0
    maxcore 5000
end

%pal
  nprocs 6
  end
* xyz 0 1
   C        5.37672        -4.21500        -4.64122
   C        5.11195        -4.24782        -6.11042
   O        4.86243        -5.23813        -6.76458
   C        5.25956        -2.85386        -6.56855
   C        5.46617        -2.03154        -5.46234
   C        5.37953        -2.83733        -4.24540
   C        5.14846        -2.33534        -2.98417
   C        4.80709        -3.14802        -1.88687
   N        4.51248        -3.78147        -0.97526
   C        5.15944        -0.96781        -2.65230
   N        5.18396         0.12638        -2.30160
   C        5.70799        -0.66265        -5.62096
   C        5.70694        -0.13658        -6.88715
   C        5.45188        -0.93298        -8.02413
   C        5.23306        -2.33399        -7.87656
   C        5.00019        -3.12270        -9.02197
   C        4.97311        -2.54560       -10.26152
   C        5.17379        -1.16351       -10.41089
   C        5.40802        -0.37624        -9.31793
   C        5.59450        -5.41554        -4.00058
   C        6.20382        -5.75451        -2.78713
   C        7.07267        -5.01031        -2.01368
   C        7.57700        -5.36207        -0.73485
   C        8.35041        -4.40193        -0.14957
   C        8.51293        -3.25101        -0.94737
   S        7.74111        -3.47757        -2.49829
   C        9.00916        -1.99206        -0.65274
   C        9.62342        -1.49106         0.51467
   C        9.83517        -0.14469         0.47485
   C        9.40299         0.48632        -0.72292
   S        8.76845        -0.71834        -1.81506
   C        9.34489         1.84798        -0.91777
   C        8.83744         2.57762        -2.01317
   C        8.65995         2.15714        -3.34110
   F        9.16853         0.97886        -3.74910
   C        8.04054         2.90835        -4.33210
   F        7.93852         2.30019        -5.52866
   C        7.53286         4.20474        -4.14710
   C        7.76238         4.68487        -2.82232
   C        8.40250         3.91894        -1.81070
   N        8.45435         4.67441        -0.70810
   N        7.88995         5.79938        -1.05806
   N        7.45748         5.87321        -2.28877
   C        7.74281         6.88856        -0.14314
   C        6.86243         5.05452        -5.04737
   C        6.56489         4.96888        -6.39115
   C        5.84119         5.97764        -7.07885
   C        5.66169         5.74308        -8.40982
   C        6.24737         4.53787        -8.84727
   S        7.01251         3.71057        -7.52247
   C        6.26437         4.00500       -10.13004
   C        5.61194         4.48400       -11.28226
   C        5.81604         3.71376       -12.39247
   C        6.65946         2.60156       -12.17492
   S        7.14468         2.54474       -10.49668
   C        7.06433         1.59938       -13.03797
   C        6.90152         1.52511       -14.42213
   C        6.66275         2.48057       -15.38633
   C        6.13757         2.02649       -16.69916
   O        6.04231         0.87392       -17.06955
   C        5.73222         3.25425       -17.41024
   C        6.08545         4.36247       -16.64292
   C        6.78567         3.90983       -15.43807
   C        7.58196         4.70687       -14.64760
   C        8.47025         4.21324       -13.67521
   N        9.24907         3.87135       -12.90316
   C        7.66700         6.10730       -14.75162
   N        7.75888         7.25261       -14.75280
   C        5.78286         5.65680       -17.08218
   C        5.14033         5.81202       -18.28376
   C        4.78533         4.71105       -19.09215
   C        5.08413         3.38870       -18.65201
   C        4.72853         2.29043       -19.46180
   C        4.10385         2.49461       -20.66062
   C        3.80676         3.79539       -21.09920
   C        4.13842         4.87889       -20.33374
   H        5.91145        -0.03555        -4.76877
   H        5.91338         0.91382        -7.03223
   H        4.84246        -4.18214        -8.89472
   H        4.79317        -3.15082       -11.13763
   H        5.13999        -0.72614       -11.39843
   H        5.56361         0.68652        -9.42462
   H        5.26519        -6.26501        -4.59511
   H        6.01694        -6.76005        -2.43054
   H        7.30729        -6.29211        -0.26729
   H        8.77030        -4.47612         0.83745
   H        9.87690        -2.12479         1.34558
   H       10.27136         0.42455         1.27685
   H        9.61715         2.46268        -0.06870
   H        8.69352         7.07740         0.35410
   H        6.99358         6.64521         0.61197
   H        7.42692         7.76299        -0.70680
   H        6.52993         5.97173        -4.57451
   H        5.47340         6.84712        -6.56321
   H        5.14031         6.40484        -9.07740
   H        4.99911         5.36758       -11.26764
   H        5.34152         3.89289       -13.34002
   H        7.52218         0.73692       -12.57003
   H        6.93665         0.51943       -14.83480
   H        6.03888         6.51795       -16.48675
   H        4.89481         6.80437       -18.63401
   H        4.96201         1.29676       -19.11329
   H        3.83343         1.65355       -21.28156
   H        3.31267         3.93316       -22.04977
   H        3.91264         5.88074       -20.67009
*
