# ORCA input file
# SCF done       -209.430827684417          0.000351472310
! CAM-B3LYP def2-SVP def2/J RIJCOSX Grid4 TightSCF
%maxcore 5000
%tddft
    Mode sTDDFT
    Ethresh 5.0
    maxcore 5000
end

%pal
  nprocs 6
  end
* xyz 0 1
   C        1.83039        -3.75095         1.39129
   C        1.39647        -4.67297         0.30646
   O        1.32157        -4.40280        -0.87287
   C        1.14646        -5.96212         0.97869
   C        1.26289        -5.79710         2.35946
   C        1.52912        -4.39229         2.65165
   C        1.24796        -3.75534         3.83208
   C        1.24184        -2.35114         3.96569
   N        1.17669        -1.21219         4.09575
   C        0.83192        -4.41242         5.00704
   N        0.49764        -4.89608         5.99302
   C        1.09848        -6.88345         3.22737
   C        0.81502        -8.11355         2.69351
   C        0.67616        -8.31320         1.30236
   C        0.84636        -7.21492         0.40956
   C        0.71082        -7.42131        -0.97840
   C        0.41562        -8.66570        -1.46268
   C        0.24513        -9.75079        -0.58790
   C        0.37262        -9.57993         0.76318
   C        2.47109        -2.58897         1.08899
   C        3.31529        -1.80978         1.91075
   C        3.65618        -0.47594         1.70721
   C        4.53119         0.00040         2.66515
   C        4.91102        -0.98345         3.58789
   S        4.16144        -2.49186         3.29266
   C        5.81053        -0.43238         4.51865
   C        6.00287         0.92191         4.20643
   C        5.18863         1.31927         2.99710
   C        4.13647         2.37040         3.36444
   C        6.08031         1.81647         1.85694
   C        6.86552         1.54920         5.08118
   C        7.34316         0.68555         6.06862
   S        6.70457        -0.93559         5.89407
   C        8.22079         1.00972         7.13386
   C        8.62534         0.04202         8.08186
   C        9.47174         0.35469         9.19495
   N        9.80448        -0.62141        10.06123
   C        9.36315        -1.82396         9.87957
   C        8.53006        -2.13447         8.77512
   N        8.18751        -1.22167         7.92451
   F        8.08059        -3.37053         8.57923
   F        9.71600        -2.75770        10.75800
   C        9.97127         1.65538         9.43324
   C        9.59764         2.62649         8.47049
   C        8.74286         2.31054         7.34550
   N        8.52851         3.37982         6.57936
   S        9.30841         4.64182         7.19248
   N        9.95940         3.90922         8.46371
   C       10.77115         1.94899        10.56685
   C       11.29075         3.19352        10.92716
   C       12.00177         3.14438        12.10815
   C       12.03861         1.85579        12.66215
   S       11.18873         0.69977        11.72005
   C       12.76783         1.90290        13.86495
   C       13.19457         3.22046        14.09622
   C       12.74932         4.12958        12.97583
   C       11.82752         5.24474        13.47547
   C       13.96070         4.71127        12.24037
   C       13.93947         3.34831        15.24936
   C       14.10032         2.13467        15.91953
   S       13.26642         0.82646        15.09321
   C       14.75275         1.84882        17.13211
   C       15.65046         2.59336        17.84208
   C       15.85397         2.28109        19.28334
   O       15.46990         1.28456        19.85686
   C       16.56123         3.44994        19.83833
   C       16.87525         4.33259        18.80538
   C       16.45186         3.75134        17.53194
   C       16.94826         4.10178        16.30120
   C       16.74738         3.34586        15.12918
   N       16.64731         2.75444        14.15015
   C       17.78300         5.21213        16.06584
   N       18.43623         6.11830        15.79878
   C       17.52403         5.54388        19.07596
   C       17.84964         5.84096        20.37407
   C       17.56093         4.96162        21.44015
   C       16.89670         3.72817        21.17695
   C       16.60918         2.85255        22.24401
   C       16.96781         3.18507        23.52092
   C       17.62242         4.39894        23.78616
   C       17.91212         5.26818        22.77072
   H        1.20662        -6.75876         4.29270
   H        0.69144        -8.96520         3.34685
   H        0.84447        -6.58029        -1.64035
   H        0.31135        -8.82301        -2.52587
   H        0.01228       -10.72489        -0.99212
   H        0.24152       -10.41324         1.43837
   H        2.38210        -2.26201         0.05711
   H        3.23477         0.10247         0.90491
   H        3.49203         1.99641         4.15625
   H        3.52229         2.60210         2.49807
   H        4.62329         3.28004         3.70674
   H        6.82143         1.06332         1.59927
   H        6.59620         2.72431         2.15878
   H        5.47843         2.02975         0.97717
   H        7.16055         2.58101         5.04626
   H       11.12717         4.06717        10.32480
   H       10.96727         4.82349        13.99091
   H       11.47500         5.83799        12.63574
   H       12.36387         5.89380        14.16326
   H       14.63881         3.91524        11.94302
   H       14.49989         5.39548        12.89082
   H       13.63554         5.24895        11.35346
   H       14.32127         4.27794        15.63128
   H       14.45240         0.92729        17.62273
   H       17.75395         6.23751        18.28351
   H       18.34476         6.77422        20.60080
   H       16.10550         1.92372        22.02750
   H       16.74916         2.51353        24.33772
   H       17.89599         4.64127        24.80248
   H       18.41635         6.20231        22.97238
*
