# ORCA input file
# SCF done       -183.265206767371          0.000846688211
! CAM-B3LYP def2-SVP def2/J RIJCOSX Grid4 TightSCF
%maxcore 5000
%tddft
    Mode sTDDFT
    Ethresh 5.0
    maxcore 5000
end

%pal
  nprocs 6
  end
* xyz 0 1
   C        3.52590         0.28649         3.58273
   C        3.90175        -0.90953         4.39136
   O        4.25445        -1.98175         3.95288
   C        3.78878        -0.47423         5.79484
   C        3.26470         0.81917         5.84274
   C        2.93874         1.25738         4.49120
   C        2.05379         2.24425         4.15551
   C        1.54142         2.42036         2.85219
   N        1.02031         2.54770         1.83778
   C        1.45783         3.12353         5.08336
   N        0.95869         3.87410         5.79372
   C        3.09074         1.47399         7.06973
   C        3.43192         0.81525         8.22140
   C        3.94221        -0.50193         8.20985
   C        4.13394        -1.17427         6.96775
   C        4.64411        -2.48839         6.96133
   C        4.94706        -3.11345         8.13952
   C        4.75882        -2.45641         9.36600
   C        4.26946        -1.17944         9.40171
   C        3.84269         0.36519         2.27360
   C        3.86639         1.55441         1.44641
   C        3.47602         1.47980         0.09712
   O        3.01190         0.28528        -0.41287
   C        1.78659        -0.18060         0.12205
   C        3.57676         2.61254        -0.72092
   O        3.32412         2.66926        -2.04897
   C        2.46480         1.73777        -2.67010
   C        4.07308         3.80921        -0.16875
   C        4.48406         3.85780         1.15348
   C        4.37408         2.74643         1.96018
   C        4.11558         5.01510        -1.00974
   C        5.27691         5.71773        -1.22549
   C        5.30153         6.86018        -2.03501
   C        4.16268         7.33030        -2.64622
   C        2.94600         6.62338        -2.45603
   N        1.83481         7.01552        -3.11085
   C        0.73132         6.36383        -2.87286
   C        0.68074         5.29916        -1.94915
   N        1.75056         4.85845        -1.34955
   C        2.91708         5.48220        -1.60919
   C        4.16844         8.51257        -3.51987
   C        3.28004         9.56866        -3.28857
   O        2.48970         9.57902        -2.15395
   C        3.20464         9.74838        -0.94593
   C        3.20415        10.62522        -4.20724
   O        2.37061        11.68554        -4.15502
   C        1.31090        11.75481        -3.22340
   C        4.10384        10.65390        -5.29704
   C        5.01680         9.61366        -5.47369
   C        5.03346         8.54562        -4.61020
   C        4.01671        11.74256        -6.23618
   C        5.02222        12.31180        -6.93690
   C        4.72999        13.13574        -8.14449
   O        3.64956        13.58169        -8.46093
   C        6.01341        13.22940        -8.86530
   C        7.02380        12.65277        -8.09461
   C        6.46537        12.20929        -6.82142
   C        7.17328        11.97771        -5.67322
   C        6.58955        11.78857        -4.40203
   N        6.20054        11.68657        -3.32674
   C        8.58156        11.98699        -5.59803
   N        9.72341        11.96302        -5.48299
   C        8.33782        12.58534        -8.57778
   C        8.61079        13.09869        -9.81842
   C        7.61353        13.69886       -10.61860
   C        6.27354        13.77180       -10.13882
   C        5.27999        14.36842       -10.94171
   C        5.60192        14.87358       -12.17101
   C        6.92045        14.80418       -12.64887
   C        7.90437        14.23044       -11.89136
   H        2.70584         2.48017         7.10752
   H        3.30804         1.30661         9.17566
   H        4.78506        -2.98320         6.01342
   H        5.33448        -4.12127         8.13424
   H        5.00458        -2.96907        10.28420
   H        4.12366        -0.67171        10.34420
   H        4.20375        -0.54876         1.81054
   H        1.89015        -0.49362         1.16565
   H        1.50414        -1.03793        -0.48669
   H        1.01316         0.59092         0.06462
   H        1.49629         1.69818        -2.16621
   H        2.90411         0.73908        -2.70626
   H        2.32652         2.11455        -3.68380
   H        4.86929         4.78400         1.55260
   H        4.71799         2.77837         2.98360
   H        6.19575         5.37340        -0.77351
   H        6.23168         7.39315        -2.17099
   H       -0.14714         6.67989        -3.41997
   H       -0.24972         4.80098        -1.71064
   H        2.45089         9.85517        -0.16710
   H        3.83036        10.64667        -0.98252
   H        3.83789         8.88514        -0.72019
   H        1.67507        11.97949        -2.21869
   H        0.73281        10.83015        -3.20137
   H        0.68516        12.57762        -3.57079
   H        5.67437         9.62965        -6.33027
   H        5.70215         7.71496        -4.77618
   H        3.01944        12.11278        -6.44820
   H        9.11780        12.12619        -7.99226
   H        9.61701        13.04804       -10.20897
   H        4.27085        14.41489       -10.56397
   H        4.84079        15.33073       -12.78556
   H        7.15200        15.20839       -13.62329
   H        8.91966        14.17625       -12.25706
*
