# ORCA input file
# SCF done       -242.023429873912          0.000493465342
! CAM-B3LYP def2-SVP def2/J RIJCOSX Grid4 TightSCF
%maxcore 5000
%tddft
    Mode sTDDFT
    Ethresh 5.0
    maxcore 5000
end

%pal
  nprocs 6
  end
* xyz 0 1
   C        1.02126        -2.96264         7.08321
   C        0.86495        -1.95834         8.03427
   C        0.34379        -2.30889         9.39152
   C        1.19091        -0.62827         7.72574
   C        1.01581         0.44951         8.74731
   C        1.68130        -0.31345         6.46245
   C        1.84021        -1.31472         5.52621
   C        1.50637        -2.64718         5.82619
   C        1.73437        -3.46971         4.64196
   C        1.15884        -4.69172         4.40823
   C        0.45206        -5.42998         5.37749
   N       -0.09479        -6.09424         6.13836
   C        1.16224        -5.33101         3.15116
   N        1.10016        -5.87036         2.14006
   C        2.45652        -2.65019         3.68994
   C        2.36286        -1.23408         4.15037
   O        2.69716        -0.24898         3.53280
   C        3.25962        -2.94113         2.63065
   C        3.82438        -4.18486         2.25877
   C        3.94572        -5.33062         3.00326
   C        4.59743        -6.38323         2.33637
   C        4.81527        -7.69226         2.81627
   C        4.38350        -8.06825         4.14674
   C        4.53366        -7.37907         5.31786
   C        3.91877        -8.00817         6.41793
   C        3.29011        -9.17100         6.09219
   S        3.46956        -9.52643         4.40618
   C        2.50100       -10.07039         6.97361
   C        5.40186        -8.58510         1.93248
   C        5.81683        -8.21507         0.62901
   C        5.63321        -6.89653         0.15831
   C        4.98964        -6.01936         1.02229
   S        4.57519        -4.36308         0.68284
   C        6.11229        -6.49131        -1.14729
   C        7.30967        -6.79396        -1.73355
   C        7.46440        -6.22366        -3.01263
   C        6.38906        -5.49127        -3.41160
   S        5.15449        -5.48156        -2.19443
   C        6.19139        -4.75756        -4.68884
   C        6.36445        -9.31695        -0.06494
   C        6.40795       -10.47255         0.66881
   S        5.75310       -10.26155         2.27264
   C        6.92314       -11.74726         0.25090
   C        7.43856       -11.98329        -1.01406
   C        7.95419       -13.22189        -1.36975
   C        7.99690       -14.30309        -0.50038
   C        7.45555       -14.11145         0.80667
   N        7.42428       -15.11325         1.70390
   C        6.91538       -14.88390         2.88509
   C        6.40342       -13.62493         3.24114
   N        6.41636       -12.63758         2.38819
   C        6.92712       -12.83826         1.16544
   C        8.57705       -15.55139        -0.91949
   C        8.83917       -16.66649        -0.17866
   C        9.44230       -17.71877        -0.90651
   C        9.86705       -18.97225        -0.41928
   C        9.78677       -19.33582         0.98004
   C        9.47968       -20.55647         1.51455
   C        9.54328       -20.58384         2.92109
   C        9.91315       -19.39507         3.47061
   S       10.17755       -18.20021         2.24417
   C       10.09958       -19.05585         4.90573
   C       10.39688       -19.84960        -1.36028
   C       10.54837       -19.52068        -2.73205
   C       10.17296       -18.24568        -3.21004
   C        9.60683       -17.38757        -2.27510
   S        9.06303       -15.76687        -2.59550
   C       10.41816       -17.82577        -4.57238
   C        9.64237       -17.03639        -5.37660
   C       10.22597       -16.76973        -6.62947
   C       11.45620       -17.33361        -6.78964
   S       11.91188       -18.22911        -5.38145
   C       12.37913       -17.24116        -7.95136
   C       11.10805       -20.58294        -3.46924
   C       11.43736       -21.67742        -2.71126
   S       10.99851       -21.44755        -1.03006
   C       11.97235       -22.92464        -3.12001
   C       12.60908       -23.24688        -4.27658
   C       12.69485       -24.68192        -4.67770
   O       12.49351       -25.64283        -3.97109
   C       13.01570       -24.65662        -6.11558
   C       13.23994       -23.33040        -6.52656
   C       13.53412       -23.06857        -7.85326
   C       13.61308       -24.11904        -8.76306
   C       13.40120       -25.44211        -8.34392
   C       13.09896       -25.70312        -7.01143
   C       13.49665       -26.56954        -9.32132
   C       13.93073       -23.82683       -10.19480
   C       13.14832       -22.45417        -5.36307
   C       13.70597       -21.20609        -5.26443
   C       13.87591       -20.53150        -4.03756
   N       14.08571       -19.97914        -3.05398
   C       14.22540       -20.49080        -6.35969
   N       14.61633       -19.85183        -7.23075
   H        0.77252        -3.97999         7.34217
   H        0.13115        -3.37216         9.46001
   H       -0.57142        -1.75725         9.60318
   H        1.07031        -2.04763        10.16047
   H       -0.02675         0.51921         9.05609
   H        1.32452         1.41170         8.34814
   H        1.60810         0.23495         9.63633
   H        1.93790         0.70353         6.20597
   H        3.57040        -2.08295         2.04283
   H        3.60093        -5.41292         4.01688
   H        5.10741        -6.47197         5.39779
   H        3.93963        -7.60858         7.41660
   H        2.72265        -9.86079         8.01749
   H        2.72545       -11.11398         6.76187
   H        1.43363        -9.91643         6.81036
   H        8.07530        -7.36894        -1.24335
   H        8.34727        -6.35113        -3.61414
   H        7.06708        -4.87190        -5.32335
   H        6.02860        -3.69675        -4.50064
   H        5.31928        -5.13787        -5.22020
   H        6.69247        -9.25082        -1.08563
   H        7.44848       -11.19177        -1.74648
   H        8.35088       -13.34789        -2.36703
   H        6.90658       -15.71679         3.57538
   H        5.98180       -13.42513         4.21596
   H        8.59019       -16.71807         0.86341
   H        9.17919       -21.40189         0.92264
   H        9.32291       -21.45979         3.50504
   H        9.81292       -19.90065         5.52747
   H        9.49472       -18.19244         5.18081
   H       11.14172       -18.80935         5.10971
   H        8.66548       -16.68781        -5.09382
   H        9.74899       -16.17586        -7.38903
   H       11.82016       -17.28447        -8.88456
   H       13.10788       -18.04874        -7.92912
   H       12.92311       -16.29575        -7.92642
   H       11.20878       -20.56648        -4.53888
   H       11.79091       -23.75943        -2.44980
   H       13.69421       -22.05848        -8.19650
   H       12.93247       -26.71359        -6.66921
   H       12.76616       -26.44610       -10.12041
   H       13.31550       -27.52130        -8.82962
   H       14.48426       -26.59710        -9.78045
   H       14.06771       -22.76026       -10.34971
   H       13.12791       -24.17430       -10.84432
   H       14.84271       -24.34118       -10.49579
*
