# ORCA input file
# SCF done       -155.617197400827          0.000943390928
! CAM-B3LYP def2-SVP def2/J RIJCOSX Grid4 TightSCF
%maxcore 5000
%tddft
    Mode sTDDFT
    Ethresh 5.0
    maxcore 5000
end

%pal
  nprocs 6
  end
* xyz 0 1
   C        7.65328         2.97077        -5.80191
   C        8.28943         2.57501        -6.95389
   C        9.05596         1.39286        -6.96838
   N        9.67656         0.42698        -6.96586
   C        8.25104         3.25926        -8.17925
   N        8.25402         3.77180        -9.20780
   C        6.83176         4.12654        -5.56195
   C        6.34442         4.18427        -4.23862
   C        5.53683         5.25130        -3.84970
   C        5.22363         6.23501        -4.76446
   C        5.70320         6.17405        -6.06965
   C        6.50464         5.12735        -6.47574
   C        6.76599         3.08124        -3.41493
   S        7.79580         2.00441        -4.35644
   C        6.42168         2.87029        -2.11517
   C        6.80710         1.81553        -1.26288
   C        7.67455         0.74675        -1.46132
   C        7.77387        -0.06944        -0.34847
   C        6.98025         0.35753         0.72089
   S        6.10933         1.78435         0.35626
   C        7.14589        -0.53678         1.80038
   C        8.04919        -1.53384         1.43167
   C        8.53085        -1.32453         0.01567
   C       10.04383        -1.09658        -0.03417
   C        8.13056        -2.49525        -0.88651
   C        8.27161        -2.45960         2.44134
   C        7.53746        -2.18151         3.58257
   S        6.55609        -0.73974         3.40155
   C        7.51041        -2.91954         4.79119
   C        6.73460        -2.70649         5.91181
   C        6.95000        -3.63980         6.92328
   C        7.90117        -4.58712         6.60528
   S        8.53937        -4.31019         5.00710
   C        8.35935        -5.67465         7.38880
   C        9.36582        -6.57414         7.07626
   C        9.54869        -7.52570         8.06954
   C        8.67679        -7.36024         9.14582
   S        7.62697        -6.01595         8.94490
   C        8.91506        -8.37772        10.09465
   C        9.94855        -9.19852         9.63051
   C       10.45517        -8.71359         8.29167
   C       11.92148        -8.27948         8.37666
   C       10.26601        -9.77324         7.20346
   C       10.23500       -10.23599        10.49731
   C        9.42492       -10.22751        11.63228
   S        8.29121        -8.88590        11.60717
   C        9.48532       -11.17418        12.67293
   C        8.72335       -11.24761        13.79810
   C        8.81729       -12.24553        14.83127
   C        7.88959       -12.06468        15.87880
   C        7.04735       -10.91466        15.68039
   C        6.03861       -10.43098        16.47757
   C        5.62295       -10.99616        17.69403
   N        5.23644       -11.41016        18.69415
   C        5.32146        -9.27675        16.10370
   N        4.73716        -8.33771        15.79714
   S        7.44849       -10.09749        14.18969
   C        7.86169       -12.95377        16.95193
   C        8.74919       -14.01013        16.97507
   C        9.66339       -14.19169        15.94178
   C        9.70365       -13.31958        14.87364
   H        5.15996         5.31095        -2.84076
   H        4.59945         7.06284        -4.46388
   H        5.44764         6.95259        -6.77150
   H        6.87464         5.08491        -7.48691
   H        5.75787         3.59824        -1.66730
   H        8.21107         0.58420        -2.37689
   H       10.35264        -0.87051        -1.05157
   H       10.56627        -1.98845         0.30226
   H       10.32304        -0.26495         0.60882
   H        7.05496        -2.65214        -0.84808
   H        8.62769        -3.40492        -0.55940
   H        8.41644        -2.28767        -1.91450
   H        8.92759        -3.30920         2.37739
   H        6.03170        -1.89504         5.97916
   H        6.43474        -3.63644         7.86738
   H        9.92249        -6.51221         6.15824
   H       12.24008        -7.85395         7.42837
   H       12.55172        -9.13462         8.60797
   H       12.04919        -7.53095         9.15537
   H        9.22284       -10.07602         7.14822
   H       10.87221       -10.64825         7.42452
   H       10.56494        -9.37357         6.23769
   H       10.98998       -10.98532        10.33948
   H       10.23920       -11.93974        12.54043
   H        7.15580       -12.81895        17.75475
   H        8.73247       -14.70146        17.80323
   H       10.34920       -15.02476        15.97626
   H       10.41675       -13.47039        14.07823
*
