# ORCA input file
# SCF done       -188.762236477427          0.000981012935
! CAM-B3LYP def2-SVP def2/J RIJCOSX Grid4 TightSCF
%maxcore 5000
%tddft
    Mode sTDDFT
    Ethresh 5.0
    maxcore 5000
end

%pal
  nprocs 6
  end
* xyz 0 1
   C       -7.95658         1.95756         3.30744
   C       -8.84103         2.21223         4.31778
   F       -9.14714         3.47500         4.64222
   C       -9.44104         1.15415         5.02988
   F      -10.30522         1.43345         6.01468
   C       -9.14679        -0.14472         4.72248
   C       -8.23880        -0.43937         3.68703
   C       -7.63285         0.62925         2.96482
   C       -6.71973         0.35829         1.91987
   C       -6.41951        -0.94160         1.60735
   C       -7.02717        -2.00075         2.33747
   C       -7.91396        -1.77191         3.34941
   C       -6.53539        -3.28941         1.81923
   O       -6.85592        -4.39411         2.21685
   C       -5.59092        -2.96365         0.74202
   C       -5.53062        -1.51938         0.60087
   C       -4.79326        -0.79941        -0.30255
   C       -3.93555        -1.33432        -1.28691
   N       -3.22431        -1.68530        -2.11773
   C       -4.79291         0.61028        -0.37660
   N       -4.74561         1.75128        -0.49028
   C       -4.87619        -3.87056         0.00491
   C       -4.84540        -5.27432         0.05897
   C       -4.01932        -6.01430        -0.78839
   C       -4.13470        -7.37608        -0.56991
   C       -5.04989        -7.70350         0.44215
   S       -5.77740        -6.30899         1.13649
   C       -5.16232        -9.08784         0.65733
   C       -4.34777        -9.79157        -0.18002
   S       -3.41267        -8.79316        -1.26048
   C       -4.18096       -11.28352        -0.22220
   C       -2.84496       -11.68240         0.43651
   N       -5.22872       -11.86271         0.62755
   N       -5.93226       -12.79838         0.35496
   C       -5.91914       -13.57547        -0.89674
   C       -5.08380       -12.92142        -1.93148
   C       -4.25156       -11.81132        -1.60729
   N       -3.66462       -11.42100        -2.70141
   O       -4.09455       -12.23812        -3.67047
   N       -4.95954       -13.15028        -3.20746
   C       -7.38116       -13.71772        -1.34354
   C       -5.35776       -14.91105        -0.50567
   C       -4.53033       -15.71868        -1.23009
   C       -4.24802       -16.90233        -0.52936
   C       -4.85480       -16.97518         0.72767
   S       -5.79393       -15.55907         1.05034
   C       -4.55972       -18.14312         1.43037
   C       -3.76000       -18.99847         0.69889
   S       -3.31969       -18.31075        -0.86197
   C       -3.24280       -20.23599         1.15700
   C       -2.70892       -21.26222         0.44478
   C       -1.79818       -22.23063         1.11791
   O       -1.65177       -22.38148         2.30771
   C       -1.07526       -22.90204         0.01780
   C       -0.03332       -23.78140         0.08758
   C        0.52903       -24.27625        -1.11043
   C        0.00075       -23.84603        -2.36268
   C        0.57309       -24.33781        -3.55311
   C        1.61834       -25.21671        -3.50316
   C        2.13905       -25.64259        -2.26437
   C        1.60642       -25.18356        -1.09249
   F        3.16527       -26.50324        -2.24569
   F        2.16058       -25.68304        -4.63518
   C       -1.08503       -22.94184        -2.40436
   C       -1.61793       -22.48136        -1.23054
   C       -2.74230       -21.58891        -0.96635
   C       -3.78643       -21.35253        -1.81958
   C       -4.98740       -20.73566        -1.40934
   N       -5.99346       -20.28576        -1.08938
   C       -3.81320       -21.78738        -3.16012
   N       -3.86517       -22.10897        -4.26039
   H       -7.50658         2.77931         2.77252
   H       -9.61366        -0.94348         5.27723
   H       -6.28039         1.19049         1.39458
   H       -8.35995        -2.59628         3.88474
   H       -4.21101        -3.46819        -0.74966
   H       -3.37580        -5.55876        -1.51907
   H       -5.80308        -9.54941         1.38506
   H       -2.84416       -11.34926         1.47089
   H       -2.02627       -11.21314        -0.10324
   H       -2.72016       -12.76394         0.41056
   H       -7.78982       -12.74183        -1.59650
   H       -7.96297       -14.14540        -0.53179
   H       -7.42975       -14.36287        -2.21647
   H       -4.17130       -15.49099        -2.21672
   H       -4.93259       -18.38020         2.40960
   H       -3.18901       -20.34440         2.23646
   H        0.35774       -24.09472         1.04356
   H        0.18411       -24.02499        -4.50947
   H        2.01630       -25.51913        -0.15276
   H       -1.46271       -22.62500        -3.36362
*
