# ORCA input file
# SCF done       -226.591364233115          0.000452634955
! CAM-B3LYP def2-SVP def2/J RIJCOSX Grid4 TightSCF
%maxcore 5000
%tddft
    Mode sTDDFT
    Ethresh 5.0
    maxcore 5000
end

%pal
  nprocs 6
  end
* xyz 0 1
   C      -18.55601       -11.03292        -0.50063
   C      -19.56054       -10.93870         0.42120
   F      -20.83317       -10.81874         0.02074
   C      -19.27361       -10.96638         1.80080
   F      -20.27861       -10.87231         2.68230
   C      -17.98505       -11.08745         2.23954
   C      -16.92807       -11.18692         1.31408
   C      -17.21639       -11.16067        -0.08124
   C      -16.17238       -11.26477        -1.02894
   C      -14.87879       -11.39111        -0.59454
   C      -14.60143       -11.40561         0.79858
   C      -15.58702       -11.31031         1.73835
   C      -13.14793       -11.53145         1.01390
   O      -12.61217       -11.60979         2.10272
   C      -12.53680       -11.52676        -0.33421
   C      -13.61560       -11.52921        -1.31363
   C      -13.50555       -11.70021        -2.66853
   C      -12.31573       -11.94120        -3.38973
   N      -11.41118       -12.16488        -4.06106
   C      -14.60681       -11.70206        -3.55170
   N      -15.45617       -11.71039        -4.32377
   C      -11.21538       -11.41934        -0.68152
   C      -10.03814       -11.40078         0.09614
   C       -9.83552       -11.62834         1.43917
   C       -8.49347       -11.50833         1.84771
   C       -7.64824       -11.18613         0.74717
   S       -8.52787       -11.05108        -0.74076
   C       -6.27512       -10.98272         0.80985
   O       -5.71095       -10.69005        -0.38834
   C       -4.32015       -10.54286        -0.54030
   C       -5.67683       -11.09271         2.08080
   C       -6.52061       -11.42210         3.17572
   C       -7.89019       -11.63919         3.11848
   O       -8.45262       -11.93573         4.31073
   C       -9.83514       -12.17098         4.45012
   S       -5.65721       -11.50962         4.68294
   C       -4.17219       -11.08708         3.86581
   C       -4.33947       -10.91007         2.51877
   C       -2.97176       -10.93223         4.62017
   C       -1.70779       -10.58523         4.18943
   F       -1.39989       -10.36183         2.90416
   C       -0.76439       -10.47730         5.22357
   F        0.51447       -10.14451         5.01147
   C       -1.27927       -10.74143         6.47533
   S       -2.96679       -11.13768         6.34466
   C       -0.63659       -10.69126         7.74372
   C       -1.19938       -10.98442         8.95348
   C       -0.32632       -10.79616        10.04585
   C        0.95651       -10.33632         9.64741
   S        1.02530       -10.17719         7.90136
   C        1.94212       -10.06463        10.58249
   O        3.20402        -9.62080        10.38551
   C        3.64570        -9.27941         9.09085
   C        1.59214       -10.26586        11.93842
   C        0.31311       -10.74574        12.33410
   C       -0.66961       -11.01791        11.39781
   O       -1.93059       -11.47202        11.59131
   C       -2.42889       -11.65325        12.89695
   S        0.24054       -10.87861        14.07697
   C        1.85779       -10.22902        14.25463
   C        2.42903        -9.98039        13.03178
   C        2.39764       -10.09252        15.55381
   C        3.44045        -9.32669        15.98153
   C        4.07496        -9.65301        17.28797
   O        3.64840       -10.40765        18.13120
   C        5.34666        -8.90233        17.30245
   C        6.34818        -8.93025        18.22917
   C        7.49743        -8.13459        18.02251
   C        7.58823        -7.32989        16.84989
   C        8.73944        -6.54279        16.64647
   C        9.75045        -6.55058        17.56592
   C        9.65856        -7.34499        18.72630
   C        8.55639        -8.12134        18.95096
   F       10.66532        -7.33326        19.61060
   F       10.84295        -5.79999        17.37162
   C        6.53184        -7.31760        15.91033
   C        5.42201        -8.08649        16.13789
   C        4.17767        -8.23521        15.38448
   C        3.71232        -7.33413        14.46125
   C        2.39792        -7.32918        13.95412
   N        1.32861        -7.24946        13.54436
   C        4.46762        -6.24931        13.97192
   N        5.04657        -5.36585        13.52223
   H      -18.79361       -11.01160        -1.55274
   H      -17.78132       -11.10672         3.29873
   H      -16.42591       -11.23743        -2.07596
   H      -15.34512       -11.32835         2.79021
   H      -11.01509       -11.29551        -1.73935
   H      -10.66101       -11.86592         2.07909
   H       -4.16466       -10.41831        -1.61143
   H       -3.78144       -11.43112        -0.20034
   H       -3.95102        -9.65390        -0.02132
   H       -9.98103       -12.36333         5.51242
   H      -10.15260       -13.04727         3.87966
   H      -10.42616       -11.30037         4.15763
   H       -3.51696       -10.64426         1.88541
   H       -2.21393       -11.31902         9.06861
   H        4.66456        -8.91772         9.22200
   H        3.03509        -8.48588         8.65385
   H        3.65311       -10.14558         8.42431
   H       -3.45682       -11.98825        12.76545
   H       -2.42303       -10.71909        13.46362
   H       -1.86804       -12.41663        13.44228
   H        3.43951        -9.63843        12.90025
   H        1.95907       -10.72775        16.31807
   H        6.26424        -9.54951        19.10918
   H        8.82381        -5.92564        15.76565
   H        8.50123        -8.72381        19.84408
   H        6.63067        -6.70386        15.02930
*
