# ORCA input file
# SCF done       -228.566013064776          0.000526917409
! CAM-B3LYP def2-SVP def2/J RIJCOSX Grid4 TightSCF
%maxcore 5000
%tddft
    Mode sTDDFT
    Ethresh 5.0
    maxcore 5000
end

%pal
  nprocs 6
  end
* xyz 0 1
   C      -16.71188       -11.45434        -3.65802
   C      -16.94069       -12.06672        -4.85813
   F      -18.18904       -12.17361        -5.33265
   C      -15.87150       -12.59264        -5.61061
   F      -16.12542       -13.18804        -6.78414
   C      -14.58740       -12.49905        -5.15196
   C      -14.31932       -11.87374        -3.91895
   C      -15.39927       -11.34105        -3.15703
   C      -15.15507       -10.70930        -1.91611
   C      -13.86995       -10.61412        -1.44964
   C      -12.79951       -11.15032        -2.21765
   C      -13.00255       -11.76396        -3.41945
   C      -11.52844       -10.92938        -1.50199
   O      -10.42294       -11.24853        -1.89061
   C      -11.88520       -10.25228        -0.24318
   C      -13.32016       -10.03400        -0.22638
   C      -14.05590        -9.39716         0.74090
   C      -15.45575        -9.22971         0.68585
   N      -16.59137        -9.06187         0.70633
   C      -13.54772        -8.81219         1.91907
   N      -13.21975        -8.30872         2.89875
   C      -11.02130        -9.91601         0.76349
   C       -9.63042       -10.10505         0.88538
   C       -8.96756        -9.72917         2.04488
   C       -7.59103       -10.00613         2.04407
   C       -7.21624       -10.60878         0.80954
   S       -8.54730       -10.81387        -0.28942
   C       -5.93308       -11.02858         0.47735
   O       -5.83858       -11.55688        -0.76823
   C       -4.60794       -11.96962        -1.30816
   C       -4.93498       -10.86847         1.45679
   C       -5.31370       -10.26565         2.68838
   C       -6.58164        -9.81510         3.01844
   O       -6.67109        -9.26313         4.25278
   C       -7.86662        -8.69687         4.73033
   S       -3.98821       -10.15947         3.81217
   C       -2.92749       -10.92918         2.65395
   C       -3.56328       -11.22495         1.47978
   C       -1.56492       -11.22708         2.98639
   C       -1.05078       -11.02519         4.26424
   N        0.16614       -11.34944         4.66920
   C        1.04266       -11.89485         3.84406
   C        0.68463       -12.11199         2.48429
   C       -0.64845       -11.78251         2.05542
   N       -0.83299       -12.06232         0.76488
   S        0.52781       -12.66832         0.15851
   N        1.42015       -12.61537         1.49573
   C        2.30806       -12.27948         4.38769
   C        3.37033       -12.85158         3.74798
   C        4.45577       -13.16814         4.59964
   C        4.16738       -12.81255         5.96104
   S        2.57852       -12.07193         6.08855
   C        5.03240       -13.08405         7.00834
   O        4.89922       -12.80743         8.32498
   C        3.85793       -11.98172         8.79608
   C        6.23144       -13.75933         6.67624
   C        6.52437       -14.08242         5.33547
   C        5.67920       -13.78849         4.27387
   O        6.14742       -14.17782         3.06166
   C        5.61629       -13.68239         1.85535
   S        8.05313       -14.88623         5.18851
   C        8.31503       -14.76493         6.92194
   C        7.25628       -14.15257         7.55322
   C        9.47380       -15.35256         7.47856
   C       10.02074       -15.19918         8.71781
   C       10.95374       -16.24713         9.21604
   O       11.47883       -17.12017         8.56502
   C       11.04650       -16.02351        10.67362
   C       11.66958       -16.78415        11.61998
   C       11.59198       -16.39292        12.97563
   C       10.86503       -15.21754        13.32324
   C       10.78399       -14.83806        14.67811
   C       11.39700       -15.58857        15.64169
   C       12.11633       -16.75010        15.29666
   C       12.21317       -17.14475        13.99177
   F       12.70567       -17.46815        16.26288
   F       11.31830       -15.22580        16.92922
   C       10.23744       -14.44472        12.31917
   C       10.33146       -14.83971        11.01171
   C        9.81729       -14.24052         9.78092
   C        9.44883       -12.92700         9.64403
   C        9.20565       -12.30431         8.40336
   N        9.03644       -11.74267         7.41696
   C        9.34801       -12.02401        10.72135
   N        9.22585       -11.25682        11.56669
   H      -17.54190       -11.05715        -3.09481
   H      -13.77962       -12.90691        -5.73919
   H      -15.99529       -10.31892        -1.36555
   H      -12.16958       -12.16089        -3.97950
   H      -11.45765        -9.44024         1.63361
   H       -9.51187        -9.27878         2.85354
   H       -4.20447       -12.83540        -0.77507
   H       -3.87615       -11.15719        -1.31300
   H       -4.83232       -12.25699        -2.33510
   H       -7.61056        -8.26941         5.69928
   H       -8.64240        -9.45510         4.86939
   H       -8.22689        -7.90215         4.07152
   H       -3.02528       -11.69945         0.68306
   H       -1.68098       -10.58622         5.02646
   H        3.32219       -13.04781         2.69536
   H        4.07976       -11.81895         9.85013
   H        2.88280       -12.46572         8.70271
   H        3.84109       -11.02061         8.27794
   H        6.37904       -13.88675         1.10362
   H        5.43593       -12.60598         1.90349
   H        4.69749       -14.20658         1.57613
   H        7.17580       -14.03069         8.61778
   H        9.96414       -16.09836         6.85981
   H       12.21240       -17.67376        11.33911
   H       10.24025       -13.94972        14.95924
   H       12.76720       -18.03651        13.74376
   H        9.68763       -13.56432        12.61150
*
