# ORCA input file
# SCF done       -179.841476330027          0.000422796879
! CAM-B3LYP def2-SVP def2/J RIJCOSX Grid4 TightSCF
%maxcore 5000
%tddft
    Mode sTDDFT
    Ethresh 5.0
    maxcore 5000
end

%pal
  nprocs 6
  end
* xyz 0 1
   C        2.41708         3.14248        -8.42073
   C        1.33793         3.95989        -8.61078
   F        1.10140         4.47117        -9.83226
   C        0.45608         4.29370        -7.57365
   C        0.68070         3.78497        -6.32472
   C        1.77893         2.93742        -6.07191
   C        2.66302         2.60822        -7.14087
   C        3.76647         1.75328        -6.91494
   C        3.97856         1.24784        -5.66067
   C        3.10066         1.59310        -4.59213
   C        2.02434         2.41106        -4.78388
   C        3.57138         0.95452        -3.34884
   O        3.05515         0.97525        -2.25598
   C        4.87361         0.31800        -3.70801
   C        4.99495         0.33451        -5.15094
   C        5.76333        -0.50270        -5.91421
   C        6.55362        -1.54468        -5.39005
   N        7.19783        -2.41865        -5.01634
   C        5.82456        -0.45069        -7.32159
   N        5.94182        -0.42962        -8.46332
   C        5.73132        -0.04005        -2.72149
   C        7.13054        -0.33112        -2.80878
   C        7.75155        -1.16789        -1.88385
   N        9.02150        -1.54588        -1.89900
   C        9.85230        -1.10306        -2.82754
   C        9.37801        -0.17294        -3.79458
   C        7.99732         0.21393        -3.79053
   N        7.72635         1.09926        -4.74921
   S        9.07590         1.39559        -5.57707
   N       10.06600         0.43054        -4.76153
   C       11.22184        -1.53588        -2.89319
   C       11.79617        -2.49433        -2.14708
   C       11.08489        -3.28155        -1.10335
   C       13.24822        -2.84052        -2.36967
   N       13.38849        -4.20966        -2.79734
   C       14.11071        -5.14575        -2.17028
   C       14.19233        -6.45103        -2.56316
   C       15.00736        -7.38907        -1.91846
   C       15.13942        -8.70390        -2.29768
   C       15.96906        -9.68468        -1.71138
   C       15.90308       -10.90675        -2.31473
   C       15.00982       -10.95533        -3.40559
   S       14.25921        -9.40455        -3.65192
   C       14.71006       -12.04517        -4.21264
   C       15.24736       -13.34294        -4.15323
   C       14.73035       -14.19384        -5.09168
   C       13.75955       -13.60775        -5.92782
   S       13.52734       -11.93065        -5.49800
   C       13.05517       -14.23369        -6.94554
   C       12.09167       -13.58901        -7.70363
   C       11.34347       -14.17762        -8.71119
   C       10.32375       -13.54503        -9.49988
   C        9.90392       -12.23354        -9.43345
   C        8.89022       -11.68721       -10.24252
   N        8.07110       -11.17862       -10.86858
   C       10.41217       -11.24733        -8.56705
   N       10.76399       -10.37697        -7.90260
   C        9.78318       -14.54868       -10.41782
   C       10.46624       -15.76950       -10.20358
   C       11.46788       -15.58218        -9.12944
   O       12.22277       -16.43640        -8.70145
   C       10.18773       -16.91000       -10.91357
   C        9.18126       -16.84522       -11.88447
   C        8.50321       -15.62311       -12.08994
   C        8.78753       -14.46701       -11.37123
   S        7.29487       -15.76342       -13.33281
   C        7.71467       -17.44106       -13.55445
   C        8.70633       -17.87564       -12.74266
  Br        6.80185       -18.46201       -14.83801
   H        3.07302         2.90332        -9.24315
   H       -0.37880         4.94331        -7.78348
   H        0.01505         4.02800        -5.51024
   H        4.42406         1.52660        -7.73905
   H        1.36713         2.65481        -3.96257
   H        5.30628        -0.05899        -1.72232
   H        7.16238        -1.60577        -1.08826
   H       11.80112        -1.02144        -3.64810
   H       11.66874        -4.14510        -0.79310
   H       10.89111        -2.65236        -0.23562
   H       10.11176        -3.60103        -1.46890
   H       13.80517        -2.71388        -1.43640
   H       13.68128        -2.17372        -3.12468
   H       12.83718        -4.48991        -3.59618
   H       14.67311        -4.80370        -1.31060
   H       13.62072        -6.78237        -3.41926
   H       15.58956        -7.06154        -1.06641
   H       16.59272        -9.45921        -0.86406
   H       16.46650       -11.76719        -2.00237
   H       15.99517       -13.62195        -3.43260
   H       15.01613       -15.22463        -5.20269
   H       13.26876       -15.27476        -7.13905
   H       11.90876       -12.54565        -7.47697
   H       10.72722       -17.82539       -10.72683
   H        8.24015       -13.56044       -11.56717
   H        9.08892       -18.88004       -12.74612
*
