# ORCA input file
# SCF done       -197.513411300898          0.000429522123
! CAM-B3LYP def2-SVP def2/J RIJCOSX Grid4 TightSCF
%maxcore 5000
%tddft
    Mode sTDDFT
    Ethresh 5.0
    maxcore 5000
end

%pal
  nprocs 6
  end
* xyz 0 1
   C       -8.25738        -1.17389        -6.48743
   C       -7.77009        -1.36126        -7.75706
   C       -8.14710        -2.42552        -8.60206
   N       -8.41506        -3.26311        -9.34017
   C       -6.83678        -0.52388        -8.40126
   N       -6.08031         0.11008        -8.98915
   C       -9.20219        -2.04649        -5.80193
   C       -9.46223        -1.52142        -4.51154
   C      -10.31131        -2.13022        -3.62044
   C      -10.92727        -3.32219        -4.01619
   C      -10.66475        -3.83839        -5.30816
   C       -9.81187        -3.21850        -6.21232
   S      -11.53282        -5.31597        -5.59446
   C      -12.22472        -5.22347        -3.99651
   C      -11.82820        -4.14233        -3.28373
  Br      -13.40494        -6.56182        -3.42171
   C       -8.70387        -0.27103        -4.32678
   O       -8.82938         0.52775        -3.42812
   C       -7.88788        -0.11725        -5.56659
   C       -7.04172         0.92188        -5.80707
   C       -6.50949         1.77222        -4.80690
   O       -6.03753         2.99746        -5.17855
   C       -6.23119         1.59323        -3.46458
   C       -6.22978         0.61333        -2.36606
   O       -6.55249        -0.54429        -2.33414
   N       -5.66745         1.31701        -1.30583
   C       -5.24388         2.61276        -1.60171
   O       -4.71402         3.36305        -0.82541
   C       -5.59098         2.77032        -3.01636
   C       -5.49094         3.61984        -4.10516
   C       -4.89928         4.90626        -4.23011
   C       -4.82461         5.55189        -5.41389
   C       -4.23232         6.85306        -5.59083
   C       -4.35452         7.80732        -4.61739
   S       -3.69351         9.33180        -5.02359
   C       -3.16755         8.69746        -6.55473
   C       -3.51293         7.35026        -6.74388
   C       -3.05779         6.68188        -7.90725
   C       -3.35525         5.21530        -8.08098
   C       -4.67603         4.98964        -8.82287
   C       -2.34120         7.37410        -8.87360
   C       -1.80392         6.67447       -10.09396
   C       -0.41889         6.08246        -9.82277
   C       -2.04799         8.74680        -8.69807
   C       -1.32730         9.66262        -9.54610
   C       -1.21234        10.89295        -8.98875
   S       -1.95915        11.05095        -7.44154
   C       -2.45542         9.39145        -7.51855
   C       -0.74560         9.39393       -10.86737
   C        0.54873         9.07296       -11.03652
   C        1.15357         8.80677       -12.29388
   C        2.39355         8.25752       -12.43105
   C        3.07773         7.95604       -13.64094
   C        4.28663         7.36280       -13.46748
   C        4.63543         7.14690       -12.11113
   S        3.37723         7.75392       -11.05736
   C        5.76335         6.53118       -11.61451
   C        6.84945         5.98480       -12.33887
   C        7.80107         5.41403       -11.55485
   C        7.52720         5.47247       -10.16221
   S        6.00444         6.30045        -9.89192
   C        8.32137         4.95576        -9.17482
   C        8.09115         4.97230        -7.78950
   S        6.69127         5.68925        -7.04070
   C        7.23755         5.26094        -5.44032
   C        8.44306         4.58947        -5.50335
   C        8.92284         4.42810        -6.81577
   S       10.46414         3.67756        -7.22724
   C       10.14396         1.93468        -6.75801
   C       10.35096         1.63744        -5.28146
   C        9.24668         2.17928        -4.38652
   S        9.32443         3.98638        -4.09535
   C        6.39625         5.63859        -4.33911
   C        6.72932         5.66705        -3.04965
   H      -10.48547        -1.70460        -2.64502
   H       -9.64738        -3.65052        -7.18526
   H      -12.15601        -3.93031        -2.28248
   H       -6.71200         1.14226        -6.81349
   H       -5.54364         0.90520        -0.39175
   H       -4.46905         5.30786        -3.32546
   H       -5.26903         5.07625        -6.27413
   H       -4.86930         7.69824        -3.68267
   H       -3.39028         4.74134        -7.09917
   H       -2.55434         4.72911        -8.63474
   H       -5.49268         5.53003        -8.34881
   H       -4.92040         3.92992        -8.84507
   H       -4.60400         5.34568        -9.84806
   H       -1.72017         7.39318       -10.90884
   H       -2.48083         5.88742       -10.42188
   H        0.27664         6.86347        -9.52930
   H       -0.03531         5.60074       -10.71924
   H       -0.45541         5.34753        -9.02227
   H       -0.72085        11.74589        -9.41521
   H       -1.39840         9.51479       -11.72435
   H        1.18354         8.96557       -10.16543
   H        0.59017         9.02529       -13.19115
   H        2.64485         8.19178       -14.59720
   H        4.93707         7.06661       -14.27091
   H        6.89543         6.02860       -13.41220
   H        8.69742         4.94740       -11.92354
   H        9.24079         4.47339        -9.48234
   H        9.13208         1.68952        -7.08185
   H       10.85794         1.37018        -7.35728
   H       11.31071         2.04765        -4.96029
   H       10.38810         0.55075        -5.15628
   H        9.33540         1.75460        -3.38684
   H        8.25617         1.95406        -4.78216
   H        5.40230         5.94656        -4.64081
   H        7.71197         5.40726        -2.70061
   H        6.00944         5.95981        -2.30522
*
