# ORCA input file
# SCF done       -197.164630149767          0.000730437370
! CAM-B3LYP def2-SVP def2/J RIJCOSX Grid4 TightSCF
%maxcore 5000
%tddft
    Mode sTDDFT
    Ethresh 5.0
    maxcore 5000
end

%pal
  nprocs 6
  end
* xyz 0 1
   C      -11.65806        -9.29428        -9.75038
   C      -11.76495        -9.89504        -8.51630
   C      -12.16121       -11.23240        -8.31912
   N      -12.47519       -12.31233        -8.08310
   C      -11.50148        -9.28720        -7.27312
   N      -11.31309        -8.88081        -6.21419
   C      -11.93847        -9.94746       -11.02783
   C      -11.71087        -9.01839       -12.07204
   C      -11.89146        -9.33191       -13.39615
   C      -12.31903       -10.62757       -13.70790
   C      -12.54410       -11.54868       -12.65898
   C      -12.36045       -11.23047       -11.31815
   S      -13.07015       -13.09067       -13.26423
   C      -12.98029       -12.48419       -14.89652
   C      -12.57839       -11.19441       -14.98600
  Br      -13.42873       -13.61078       -16.32811
   C      -11.27479        -7.73089       -11.49112
   O      -10.99565        -6.72154       -12.10852
   C      -11.25880        -7.93938       -10.02968
   C      -10.92387        -6.97199        -9.10306
   C      -10.54666        -5.66782        -9.40501
   C      -10.24702        -4.73407        -8.42961
   C       -9.86759        -3.38822        -8.62816
   C       -9.65089        -2.69342        -7.47184
   C       -9.84912        -3.46195        -6.30752
   S      -10.31242        -5.09451        -6.71930
   C       -9.73436        -3.07073        -4.98094
   C       -9.40276        -1.80306        -4.45902
   C       -9.40436        -1.75685        -3.09520
   C       -9.73526        -2.98465        -2.47482
   S      -10.03559        -4.20648        -3.69096
   C       -9.83464        -3.21315        -1.11995
   C      -10.16909        -4.41649        -0.50155
   S      -10.48480        -5.92580        -1.33310
   C      -10.81054        -6.80083         0.16013
   C      -10.67617        -5.92874         1.24696
   C      -10.31664        -4.62424         0.87141
   C      -10.17952        -3.74635         2.02955
   O       -9.88485        -2.57541         2.04089
   C      -10.48497        -4.61826         3.23673
   C      -10.81828        -6.00615         2.70360
   O      -11.14100        -6.95337         3.38198
   C      -11.12812        -8.15749         0.03932
   C      -11.44738        -9.02991         1.05292
   C      -11.74091       -10.36507         0.77824
   C      -12.11021       -11.31974         1.70365
   C      -12.40799       -12.67356         1.42396
   C      -12.76965       -13.40295         2.51799
   C      -12.77623       -12.65567         3.71486
   S      -12.29843       -11.00314         3.41396
   C      -13.10743       -13.09458         4.98753
   C      -13.49648       -14.38181         5.41140
   C      -13.73834       -14.46414         6.75134
   C      -13.53838       -13.25398         7.45989
   S      -13.04499       -12.00280         6.34731
   C      -13.80325       -13.06161         8.80418
   C      -13.67790       -11.89367         9.55826
   C      -12.94874       -10.74523         9.32803
   C      -11.79018       -10.46893         8.53104
   C      -10.82079       -11.36870         8.14731
   C       -9.66742       -11.02342         7.41891
   N       -8.71742       -10.80404         6.81163
   C      -10.84675       -12.72925         8.50323
   N      -10.83547       -13.84446         8.77765
   C      -11.71910        -9.02384         8.34407
   C      -12.67139        -8.41052         9.19549
   C      -13.40938        -9.46507         9.92581
   O      -14.24720        -9.32260        10.78818
   C      -12.85238        -7.05037         9.23436
   C      -12.07156        -6.26453         8.37716
   C      -11.13563        -6.89271         7.52319
   C      -10.93891        -8.26822         7.49462
   S      -10.30222        -5.74396         6.52957
   C      -11.21135        -4.44683         7.25900
   C      -12.09182        -4.85284         8.20403
  Br      -10.92409        -2.68035         6.68596
   H      -11.70952        -8.60130       -14.16869
   H      -12.54694       -11.96934       -10.55706
   H      -12.46915       -10.66275       -15.91358
   H      -10.95954        -7.23606        -8.05301
   H      -10.49002        -5.36204       -10.43970
   H       -9.76929        -2.97462        -9.61597
   H       -9.35845        -1.65958        -7.43186
   H       -9.17865        -0.96463        -5.09333
   H       -9.18161        -0.87996        -2.51383
   H       -9.64923        -2.38257        -0.45018
   H      -11.31677        -4.20767         3.81253
   H       -9.62631        -4.65913         3.91044
   H      -11.12181        -8.54002        -0.97487
   H      -11.47671        -8.68238         2.07688
   H      -11.68351       -10.69433        -0.25254
   H      -12.34627       -13.06609         0.42441
   H      -13.03031       -14.44541         2.49458
   H      -13.58572       -15.20678         4.72823
   H      -14.04067       -15.36199         7.25976
   H      -14.26387       -13.90559         9.30203
   H      -14.31755       -11.83204        10.43442
   H      -13.58041        -6.60319         9.89292
   H      -10.22641        -8.70454         6.81471
   H      -12.73401        -4.18836         8.75279
*
