# ORCA input file
# SCF done       -206.683010225381          0.005410456508
! CAM-B3LYP def2-SVP def2/J RIJCOSX Grid4 TightSCF
%maxcore 5000
%tddft
    Mode sTDDFT
    Ethresh 5.0
    maxcore 5000
end

%pal
  nprocs 6
  end
* xyz 0 1
   C      -13.79106        -9.62003         5.88133
   C      -12.56979        -8.98511         5.96715
   C      -11.38592        -9.57825         6.43364
   N      -10.35821        -9.97263         6.76860
   C      -12.29433        -7.65389         5.61102
   N      -11.94250        -6.58433         5.37432
   C      -14.05586       -10.99217         6.30765
   C      -15.43107       -11.26538         6.11150
   C      -15.98360       -12.49248         6.37683
   C      -15.13684       -13.50014         6.85703
   C      -13.76910       -13.21192         7.06641
   C      -13.21144       -11.96563         6.80359
   S      -12.90920       -14.60072         7.65929
   C      -14.37632       -15.53800         7.60758
   C      -15.45783       -14.84918         7.17600
  Br      -14.34450       -17.34492         8.12060
   C      -16.09293       -10.05690         5.56579
   O      -17.27426        -9.94054         5.30470
   C      -15.01617        -9.06943         5.38652
   C      -15.16429        -7.83957         4.76587
   C      -16.35793        -7.25192         4.39051
   C      -16.39188        -6.01240         3.76261
   C      -17.51670        -5.23983         3.42789
   C      -17.21532        -4.05459         2.80436
   C      -15.84021        -3.86449         2.60412
   S      -14.93193        -5.19237         3.26991
   C      -15.18171        -2.84190         1.91529
   C      -15.69894        -1.69402         1.30502
   C      -14.75208        -0.95970         0.63065
   C      -13.46104        -1.50703         0.67627
   S      -13.46155        -2.95221         1.65579
   C      -12.35127        -1.07214        -0.04766
   C      -11.10358        -1.65545        -0.06490
   S      -10.64363        -2.92047         1.04491
   C       -9.09462        -3.17678         0.27464
   C       -8.93874        -2.27459        -0.81551
   C      -10.03950        -1.40548        -0.98626
   C      -10.01195        -0.47091        -2.01653
   C       -8.92771        -0.37340        -2.87353
   O       -9.05925         0.59160        -3.81526
   C       -8.14223         0.74745        -4.87669
   C       -7.81394        -1.24468        -2.69193
   O       -6.75797        -1.10834        -3.54761
   C       -5.65238        -1.96793        -3.40963
   C       -7.84043        -2.17570        -1.67308
   C       -8.24541        -4.17010         0.72426
   C       -8.47458        -4.87339         1.90201
   C       -7.76755        -5.96776         2.34615
   C       -7.99118        -6.55881         3.59101
   C       -7.47225        -7.76693         4.07663
   C       -7.85584        -8.06276         5.36071
   C       -8.67040        -7.07817         5.94038
   S       -8.99258        -5.80268         4.80603
   C       -9.13492        -7.01406         7.25299
   C       -8.90784        -7.92233         8.29885
   C       -9.44596        -7.52146         9.49186
   C      -10.12521        -6.28725         9.43631
   S      -10.08014        -5.65978         7.81163
   C      -10.61558        -5.59611        10.53995
   C      -11.21797        -4.34858        10.57307
   C      -11.83225        -3.61332         9.56753
   C      -12.54836        -3.98862         8.39117
   C      -13.13477        -5.20054         8.09230
   C      -14.12558        -5.31957         7.10308
   N      -15.00060        -5.45196         6.36929
   C      -12.97069        -6.40699         8.79007
   N      -12.88443        -7.43438         9.29918
   C      -12.80463        -2.77142         7.62147
   C      -12.43979        -1.65162         8.40403
   C      -11.89213        -2.14026         9.69224
   O      -11.54300        -1.47242        10.64365
   C      -12.57526        -0.36329         7.94942
   C      -13.07946        -0.17837         6.65446
   C      -13.40308        -1.30916         5.87324
   C      -13.26957        -2.61366         6.33232
   S      -13.98007        -0.85678         4.29826
   C      -13.79284         0.82580         4.71035
   C      -13.31694         1.04234         5.95726
  Br      -14.24015         2.12198         3.42830
   H      -17.03356       -12.67631         6.21048
   H      -12.16182       -11.79038         6.97090
   H      -16.44041       -15.27269         7.08028
   H      -14.26231        -7.27591         4.55877
   H      -17.29225        -7.74062         4.62101
   H      -18.51405        -5.57071         3.65786
   H      -17.94720        -3.33767         2.47631
   H      -16.74009        -1.43214         1.35878
   H      -14.96255        -0.05094         0.09496
   H      -12.51466        -0.23313        -0.71063
   H      -10.83378         0.20669        -2.18135
   H       -8.56783         1.53449        -5.49949
   H       -8.04611        -0.16767        -5.46360
   H       -7.15792         1.05694        -4.52205
   H       -5.16304        -1.84268        -2.43898
   H       -4.96217        -1.67799        -4.20025
   H       -5.93885        -3.01501        -3.54542
   H       -7.00593        -2.83973        -1.52273
   H       -7.36665        -4.40029         0.13764
   H       -9.29062        -4.53045         2.52693
   H       -7.01268        -6.41425         1.71231
   H       -6.84121        -8.39602         3.47454
   H       -7.57432        -8.95344         5.88984
   H       -8.36623        -8.83791         8.15532
   H       -9.37456        -8.08059        10.40725
   H      -10.38262        -6.04771        11.49611
   H      -11.14086        -3.81118        11.51374
   H      -12.29719         0.47982         8.56196
   H      -13.49960        -3.45045         5.69325
   H      -13.13798         2.01753         6.37336
*
