# ORCA input file
# SCF done       -152.239816622616          0.000794654653
! CAM-B3LYP def2-SVP def2/J RIJCOSX Grid4 TightSCF
%maxcore 5000
%tddft
    Mode sTDDFT
    Ethresh 5.0
    maxcore 5000
end

%pal
  nprocs 6
  end
* xyz 0 1
   C        3.05866        -0.49777         1.44646
   N        3.98409        -0.84061         2.32783
   C        3.84869        -2.02944         2.89468
   C        2.79626        -2.87712         2.58825
   C        1.86946        -2.41653         1.64505
   N        2.01898        -1.21203         1.07804
   C        0.72500        -3.21362         1.26341
   C       -0.19999        -2.78479         0.37912
   C       -1.34477        -3.56135         0.03858
   N       -1.56200        -4.75895         0.56105
   C       -2.74129        -5.17562         0.06065
   C       -3.33150        -4.16648        -0.83097
   C       -4.61747        -4.63950        -1.36560
   O       -5.38520        -4.06100        -2.10601
   C       -4.74009        -5.98259        -0.77111
   C       -3.57747        -6.26625         0.09777
   N       -3.67664        -7.50371         0.64005
   C       -4.79690        -7.99545         0.16879
   C       -5.50896        -7.10022        -0.72211
   C       -2.43137        -3.12883        -0.87587
   C       -2.45997        -1.91497        -1.61156
   C       -3.53789        -1.50493        -2.32538
   C       -3.58016        -0.31826        -3.09534
   C       -4.69822         0.21632        -3.72116
   C       -4.40443         1.38919        -4.40928
   C       -3.04273         1.74541        -4.32704
   S       -2.14006         0.65428        -3.37642
   C       -2.82856         2.92176        -5.08076
   C       -4.07031         3.32661        -5.62902
   C       -5.09681         2.38594        -5.21316
   C       -6.43015         2.43523        -5.49695
   C       -7.33928         1.45879        -5.03619
   N       -8.09100         0.67812        -4.66281
   C       -7.00250         3.47343        -6.26195
   N       -7.48111         4.31363        -6.87845
   C       -3.96782         4.47205        -6.40659
   C       -2.66080         4.93863        -6.46786
   S       -1.54746         3.95012        -5.52174
   C       -2.05538         6.03999        -7.10760
   N       -0.76418         6.24979        -6.85006
   C       -0.42268         7.35594        -7.52463
   C       -1.57619         7.90579        -8.25762
   C       -1.17980         9.11794        -9.00199
   O       -1.86690         9.84374        -9.68564
   C        0.25644         9.22652        -8.69565
   C        0.67568         8.14137        -7.78585
   N        1.99846         8.22777        -7.51347
   C        2.41888         9.27164        -8.19023
   C        1.38620         9.93697        -8.95361
   C       -2.62543         7.05387        -8.02599
   C       -3.95262         7.06936        -8.55374
   C       -4.50370         8.11234        -9.20010
   C       -5.86534         8.05035        -9.69434
   N       -6.40546         9.18527       -10.13924
   C       -7.65695         9.14208       -10.55338
   C       -8.40261         7.97500       -10.54122
   C       -7.75285         6.82019       -10.08427
   N       -6.49425         6.87956        -9.66560
   C       -8.43134         5.53076       -10.05832
   C       -7.80479         4.38885        -9.80322
   H        3.16953         0.47378         0.98129
   H        4.61001        -2.30132         3.61454
   H        2.68883        -3.84418         3.05197
   H        0.61158        -4.18550         1.72187
   H       -0.07719        -1.81043        -0.07082
   H       -5.11766        -8.98302         0.45163
   H       -6.43792        -7.31609        -1.21169
   H       -1.57015        -1.29834        -1.59267
   H       -4.44123        -2.10240        -2.32570
   H       -5.66708        -0.24545        -3.66012
   H       -4.80096         4.95219        -6.88542
   H        3.45314         9.56582        -8.14443
   H        1.52535        10.80044        -9.57343
   H       -4.55359         6.18016        -8.43761
   H       -3.97889         9.04281        -9.35745
   H       -8.07096        10.07931       -10.90406
   H       -9.42727         7.95007       -10.87480
   H       -9.49100         5.55570       -10.27270
   H       -6.74717         4.37972        -9.60479
   H       -8.32140         3.44520        -9.78808
*
