# ORCA input file
# SCF done       -217.224681502470          0.000278959088
! CAM-B3LYP def2-SVP def2/J RIJCOSX Grid4 TightSCF
%maxcore 5000
%tddft
    Mode sTDDFT
    Ethresh 5.0
    maxcore 5000
end

%pal
  nprocs 6
  end
* xyz 0 1
   C        1.28431         4.97498         1.38374
   C        0.32440         5.92523         1.17186
   F       -0.45392         6.32042         2.19512
   C        0.11325         6.51387        -0.08255
   C        0.89453         6.12608        -1.13525
   C        1.89937         5.15025        -0.97337
   C        2.09638         4.56154         0.31000
   C        3.09055         3.57237         0.49530
   C        3.86020         3.18917        -0.56901
   C        3.67477         3.79745        -1.84394
   C        2.71814         4.74873        -2.05251
   C        4.66214         3.24927        -2.79100
   O        4.77846         3.48622        -3.97182
   C        5.54445         2.36901        -1.97291
   C        4.91886         2.18810        -0.68133
   C        5.08069         1.12815         0.17373
   C        5.94330         0.04288        -0.07018
   N        6.61327        -0.87421        -0.24083
   C        4.32682         0.94832         1.35255
   N        3.73964         0.74900         2.31799
   C        6.73664         1.97105        -2.50200
   C        7.87865         1.47850        -1.83892
   C        8.22725         1.58213        -0.49914
   C        9.44751         0.98192        -0.22386
   C       10.04978         0.41129        -1.36552
   S        9.12154         0.64544        -2.77134
   C       11.25811        -0.20686        -0.96795
   C       11.42333        -0.03335         0.41777
   C       10.28570         0.71596         0.93112
   C       10.03191         1.06765         2.22397
   C       10.91260         0.74943         3.27909
   N       11.63336         0.49728         4.13409
   C        8.86388         1.77753         2.57494
   N        7.91277         2.35940         2.84279
   C       12.58496        -0.62647         0.90718
   C       13.30818        -1.25340        -0.09329
   S       12.53745        -1.10159        -1.66504
   C       14.52339        -1.96922         0.03707
   C       15.21884        -2.61980        -0.96399
   C       16.36565        -3.23979        -0.46958
   C       16.55179        -3.05693         0.92195
   S       15.29030        -2.10995         1.61551
   C       17.71858        -3.73746         1.26049
   C       18.20998        -4.31861         0.06592
   N       17.37520        -4.01375        -0.97500
   C       17.55158        -4.38250        -2.35204
   C       19.37922        -5.05546         0.24747
   C       19.78785        -5.04197         1.56768
   S       18.72413        -4.10429         2.61070
   C       20.91420        -5.70146         2.11627
   C       21.35802        -5.67342         3.42860
   C       22.48710        -6.46714         3.61431
   C       22.90686        -7.10865         2.43571
   S       21.91475        -6.72403         1.09707
   C       24.02952        -7.91160         2.73118
   C       24.33697        -7.77308         4.10164
   C       23.38130        -6.85644         4.69793
   C       23.33008        -6.44078         5.99532
   C       24.26453        -6.87384         6.96049
   N       25.02668        -7.21434         7.74615
   C       22.34843        -5.53784         6.45656
   N       21.55613        -4.79965         6.83277
   C       25.43097        -8.53982         4.48558
   C       25.93862        -9.29857         3.44080
   S       25.07233        -8.99145         1.93260
   C       27.05831       -10.15586         3.50599
   C       27.44094       -11.14030         2.64530
   C       28.86341       -11.58081         2.61686
   O       29.71433       -11.33438         3.43992
   C       29.01237       -12.31427         1.34419
   C       30.14271       -12.82051         0.77048
   C       30.04997       -13.46513        -0.48366
   C       28.78104       -13.56759        -1.12522
   C       28.69854       -14.20151        -2.38010
   C       29.83242       -14.70727        -2.95239
   C       31.08828       -14.62021        -2.33635
   C       31.18661       -14.00634        -1.11872
   F       29.75530       -15.31260        -4.15134
   C       27.62431       -13.04302        -0.50275
   C       27.73867       -12.43241         0.71605
   C       26.73490       -11.84629         1.59928
   C       25.40017       -12.16151         1.59453
   C       24.52109       -11.81634         2.64105
   N       23.78965       -11.58570         3.49558
   C       24.78146       -12.93691         0.59438
   N       24.22716       -13.54370        -0.20716
   H        1.41688         4.54058         2.36223
   H       -0.65928         7.25875        -0.18951
   H        0.75108         6.56557        -2.11090
   H        3.22675         3.15139         1.47881
   H        2.58809         5.19132        -3.02870
   H        6.82967         2.11934        -3.57379
   H        7.62984         2.11117         0.22074
   H       12.90359        -0.61853         1.93404
   H       14.89059        -2.63161        -1.98755
   H       18.16382        -5.28067        -2.40922
   H       18.04237        -3.58242        -2.91415
   H       16.58070        -4.58500        -2.80397
   H       19.91875        -5.57908        -0.52092
   H       20.86476        -5.10053         4.19308
   H       25.83455        -8.58894         5.48088
   H       27.75409        -9.95159         4.31463
   H       31.09732       -12.73090         1.26684
   H       27.74722       -14.29081        -2.88096
   H       31.94793       -15.03850        -2.83542
   H       32.14325       -13.92707        -0.62469
   H       26.67655       -13.12766        -1.01085
*
