# ORCA input file
# SCF done       -202.980044541227          0.000782321315
! CAM-B3LYP def2-SVP def2/J RIJCOSX Grid4 TightSCF
%maxcore 5000
%tddft
    Mode sTDDFT
    Ethresh 5.0
    maxcore 5000
end

%pal
  nprocs 6
  end
* xyz 0 1
   C        8.84345        -0.78403        -9.59700
   C        9.15755        -0.43286       -10.87958
   F        8.53872        -1.05959       -11.90433
   C       10.09196         0.56600       -11.17932
   C       10.74293         1.18748       -10.14940
   C       10.46326         0.86033        -8.80680
   C        9.46160        -0.11334        -8.52532
   C        9.09110        -0.38648        -7.18825
   C        9.75658         0.24391        -6.17548
   C       10.84703         1.11748        -6.45525
   C       11.17404         1.45347        -7.73751
   C       11.50473         1.48701        -5.18582
   O       12.44760         2.22368        -5.01583
   C       10.80753         0.68334        -4.13591
   C        9.59037         0.17198        -4.72765
   C        8.39795        -0.05529        -4.08918
   C        8.23597         0.07930        -2.69606
   N        8.07989         0.18885        -1.56405
   C        7.19812        -0.36942        -4.75690
   N        6.18994        -0.63604        -5.23618
   C       11.41788         0.48696        -2.93202
   C       11.15688        -0.50382        -1.95135
   C       10.41360        -1.64462        -2.18029
   C       10.12838        -2.61366        -1.23373
   C       10.67412        -2.54854         0.12122
   C       11.47131        -1.54594         0.56060
   S       11.92550        -0.20330        -0.39816
   C       10.17861        -3.70680         0.77753
   C        9.35043        -4.43571        -0.08618
   C        8.83123        -5.59059         0.54113
   C        9.26400        -5.70412         1.82381
   S       10.31225        -4.42395         2.33049
   C        9.29575        -3.75753        -1.35228
   C        8.51411        -4.02429        -2.48666
   C        7.57616        -4.99983        -2.67422
   C        6.78773        -5.04781        -3.83631
   S        6.94563        -3.84660        -5.09259
   C        5.64549        -4.51560        -6.05124
   C        5.14350        -5.63839        -5.41642
   C        5.76764        -5.94486        -4.17542
   C        5.19835        -7.08360        -3.56600
   C        4.18712        -7.61682        -4.31077
   C        3.38733        -8.79021        -3.96520
   O        3.54029        -9.45005        -2.96627
   O        2.45996        -9.03949        -4.90087
   C        1.61998       -10.15812        -4.66410
   S        3.87626        -6.75388        -5.80139
   C        5.26931        -3.88797        -7.25730
   C        4.36619        -4.31553        -8.22832
   C        4.27824        -3.46256        -9.31483
   C        5.09795        -2.34229        -9.21368
   S        5.97752        -2.37816        -7.69855
   C        5.38017        -1.24235       -10.04090
   C        5.09802        -0.98468       -11.35725
   C        5.63848         0.15389       -12.07579
   C        6.36067         1.20345       -11.56690
   C        6.97658         2.19980       -12.35415
   N        7.54539         3.02576       -12.91329
   C        6.65059         1.45769       -10.20960
   N        6.94963         1.76531        -9.14291
   C        5.30305        -0.01485       -13.48881
   C        4.54357        -1.18807       -13.63644
   C        4.36015        -1.83289       -12.31629
   O        3.72401        -2.84336       -12.10380
   C        4.08115        -1.60741       -14.86526
   C        4.38880        -0.83328       -15.98308
   C        5.13589         0.34095       -15.84299
   C        5.59455         0.76126       -14.59998
   C        5.38578         1.20655       -17.04879
   O        4.59110         2.00670       -17.46257
   O        6.61317         1.02240       -17.52220
   C        6.93885         1.75401       -18.69782
   C        3.97389        -1.23240       -17.35269
   O        4.45477        -0.77137       -18.35898
   O        3.01834        -2.16316       -17.34730
   C        2.56389        -2.59127       -18.62355
   H        8.12277        -1.56231        -9.40285
   H       10.28297         0.81791       -12.21034
   H       11.48241         1.94607       -10.35597
   H        8.30162        -1.09576        -6.99469
   H       11.97323         2.15104        -7.93781
   H       12.25843         1.14538        -2.73577
   H       10.05975        -1.79527        -3.19017
   H       11.86424        -1.51607         1.56475
   H        8.17921        -6.31057         0.08268
   H        9.02916        -6.47875         2.52742
   H        8.63756        -3.32795        -3.30832
   H        7.38258        -5.74604        -1.91990
   H        5.50317        -7.50383        -2.62536
   H        0.91150       -10.18466        -5.48766
   H        1.09965       -10.04535        -3.71073
   H        2.21108       -11.07589        -4.63512
   H        3.80898        -5.23009        -8.13114
   H        3.64437        -3.63049       -10.16618
   H        5.98764        -0.49504        -9.54323
   H        3.50366        -2.51347       -14.95940
   H        6.16244         1.67421       -14.52583
   H        6.75886         2.81972       -18.54323
   H        6.32244         1.40345       -19.52734
   H        7.99091         1.56338       -18.89253
   H        3.38163        -3.05200       -19.18170
   H        2.18496        -1.74094       -19.19405
   H        1.77232        -3.31239       -18.43736
*
