# ORCA input file
# SCF done       -236.788673527739          0.000512800731
! CAM-B3LYP def2-SVP def2/J RIJCOSX Grid4 TightSCF
%maxcore 5000
%tddft
    Mode sTDDFT
    Ethresh 5.0
    maxcore 5000
end

%pal
  nprocs 6
  end
* xyz 0 1
   C        1.48780         3.48667         3.29640
   C        1.83692         4.12070         2.13401
   C        2.42176         3.46542         1.03195
   N        2.88037         2.96944         0.10377
   C        1.72781         5.51348         1.94159
   N        1.72080         6.64632         1.75621
   C        1.81669         2.11059         3.64835
   C        1.73658         1.97411         5.06569
   C        2.02273         0.79393         5.68894
   C        2.39638        -0.32439         4.91003
   C        2.46425        -0.19802         3.49225
   C        2.17093         1.03884         2.87368
   C        2.83015        -1.32412         2.72710
   C        3.11775        -2.51764         3.33097
   C        3.05172        -2.64089         4.72691
   C        2.69957        -1.56765         5.49935
   C        1.29641         3.25192         5.65587
   O        1.17345         3.53168         6.82611
   C        0.96262         4.12180         4.49139
   C        0.18941         5.21912         4.66341
   C       -0.54961         5.95229         3.66795
   C       -0.76509         7.32642         3.84587
   C       -1.46326         8.02648         2.89404
   C       -2.00613         7.36712         1.77830
   C       -1.84015         5.99786         1.61806
   C       -1.10619         5.30452         2.55594
   C       -2.68926         8.34139         0.95838
   C       -2.56919         9.60524         1.56439
   C       -1.81534         9.49799         2.87051
   C       -2.72488         9.76662         4.09310
   C       -3.35320        11.15177         4.16843
   C       -0.55942        10.38304         2.88612
   C        0.41020        10.03483         1.76218
   C       -3.08900        10.71607         0.94451
   C       -3.79585        10.58157        -0.26139
   C       -3.91322         9.31200        -0.84271
   C       -3.35617         8.19836        -0.25054
   C       -4.39956        11.76127        -0.83441
   C       -5.28949        11.79424        -1.84333
   C       -5.93393        12.97767        -2.31138
   C       -6.91699        13.04224        -3.25705
   C       -7.43448        14.34291        -3.46414
   C       -8.48660        14.73772        -4.31297
   C       -9.22306        13.80864        -5.14721
   C       -9.67909        14.01640        -6.41720
   C      -10.42148        12.92504        -6.91851
   C      -10.55471        11.88427        -6.04731
   S       -9.73224        12.24528        -4.56702
   C      -11.26262        10.59325        -6.23735
  Cl      -11.09934        12.92761        -8.50216
   C       -8.82468        16.08572        -4.28993
   C       -8.17677        17.05006        -3.47985
   C       -7.10895        16.65738        -2.64742
   C       -6.77231        15.30672        -2.66377
   S       -5.56102        14.56087        -1.65824
   C       -6.40122        17.58247        -1.78474
   C       -5.06375        17.60226        -1.51051
   C       -4.70933        18.60421        -0.58134
   C       -5.75636        19.34975        -0.12532
   S       -7.22656        18.81466        -0.86678
   C       -5.75073        20.47128         0.84738
  Cl       -3.08149        18.85060        -0.07533
   C       -8.75581        18.33543        -3.62302
   C       -9.82784        18.36624        -4.46684
   S      -10.14523        16.79185        -5.17679
   C      -10.67833        19.46745        -4.77190
   N      -11.75758        19.35340        -5.58812
   C      -12.42657        20.54487        -5.64485
   C      -11.73113        21.45389        -4.84152
   C      -10.64432        20.78363        -4.30126
   C      -13.58870        20.72538        -6.36567
   C      -14.63269        20.92353        -6.96297
   C      -15.81882        21.07575        -7.64387
   C      -16.58711        22.20318        -7.56020
   C      -17.85585        22.47374        -8.19771
   C      -18.52170        21.66912        -9.08862
   C      -19.76210        21.99032        -9.67569
   N      -20.77100        22.18860       -10.18748
   C      -18.06141        20.41773        -9.54436
   N      -17.74212        19.39317        -9.95474
   C      -18.31286        23.77748        -7.72472
   C      -17.33633        24.31283        -6.83587
   C      -16.21752        23.35957        -6.70882
   O      -15.21144        23.48730        -6.04360
   C      -17.50032        25.52468        -6.23115
   C      -18.67217        26.27183        -6.48837
   C      -19.65318        25.74384        -7.37568
   C      -19.45432        24.48620        -7.99057
   C      -20.82000        26.49531        -7.62269
   C      -21.01125        27.70953        -7.02161
   C      -20.04468        28.22836        -6.14749
   C      -18.89978        27.52509        -5.88731
   H        1.96297         0.71271         6.76414
   H        2.22102         1.10657         1.79790
   H        2.88260        -1.22329         1.65293
   H        3.39827        -3.37395         2.73612
   H        3.28098        -3.59047         5.18693
   H        2.64698        -1.65654         6.57464
   H        0.06409         5.54266         5.69236
   H       -0.34015         7.81988         4.70737
   H       -2.27504         5.48318         0.77458
   H       -0.98693         4.23471         2.45730
   H       -2.12645         9.59932         4.99137
   H       -3.52444         9.02054         4.08646
   H       -2.59739        11.93220         4.14667
   H       -3.90533        11.24439         5.10145
   H       -4.04974        11.30814         3.34948
   H       -0.05818        10.26454         3.84899
   H       -0.85957        11.42761         2.78937
   H        0.75694         9.00833         1.84872
   H        1.27483        10.69338         1.80031
   H       -0.06915        10.15444         0.79276
   H       -2.96645        11.70103         1.36957
   H       -4.43285         9.20278        -1.78186
   H       -3.43680         7.23026        -0.72192
   H       -4.13609        12.69980        -0.36029
   H       -5.60650        10.88663        -2.33772
   H       -7.26716        12.17220        -3.78084
   H       -9.46858        14.89474        -6.99859
   H      -11.78069        10.59842        -7.19306
   H      -11.98725        10.43128        -5.44040
   H      -10.55765         9.76200        -6.22377
   H       -4.34313        16.95483        -1.97405
   H       -6.38783        20.24282         1.70124
   H       -6.12539        21.38393         0.38467
   H       -4.73668        20.64437         1.19888
   H       -8.40086        19.20972        -3.11196
   H      -12.03601        18.50795        -6.06066
   H      -12.01416        22.47576        -4.68817
   H       -9.90792        21.18865        -3.63687
   H      -16.13164        20.23519        -8.25007
   H      -16.74551        25.90836        -5.56074
   H      -20.21690        24.11365        -8.65601
   H      -21.56132        26.09133        -8.29662
   H      -21.90909        28.27695        -7.21625
   H      -20.21183        29.18784        -5.68104
   H      -18.15174        27.91949        -5.21497
*
