# ORCA input file
# SCF done       -214.264953249329          0.000501773785
! CAM-B3LYP def2-SVP def2/J RIJCOSX Grid4 TightSCF
%maxcore 5000
%tddft
    Mode sTDDFT
    Ethresh 5.0
    maxcore 5000
end

%pal
  nprocs 6
  end
* xyz 0 1
   C       -1.12390         2.12293         1.78355
   C       -0.72292         3.15135         2.59662
   C       -1.09833         3.27268         3.94935
   N       -1.39337         3.43052         5.04733
   C        0.17998         4.15488         2.19072
   N        0.94024         4.96686         1.90577
   C       -1.80571         0.91460         2.23141
   C       -1.56624        -0.11808         1.27744
   C       -2.04211        -1.38443         1.46004
   C       -2.80013        -1.67606         2.61682
   C       -3.05948        -0.64232         3.56300
   C       -2.54795         0.65869         3.35225
   C       -3.82326        -0.94541         4.70833
   C       -4.30449        -2.20959         4.91439
   C       -4.04655        -3.22743         3.98404
   C       -3.31068        -2.96640         2.86004
   C       -0.78043         0.42610         0.15487
   O       -0.34506        -0.15942        -0.80897
   C       -0.68842         1.89172         0.42149
   C       -0.33918         2.73837        -0.58294
   C       -0.57025         4.13122        -0.69108
   C        0.11399         5.01389        -1.51138
   C       -0.35942         6.31771        -1.39644
   C       -1.44897         6.42175        -0.50946
   S       -1.87474         4.92921         0.18588
   C       -1.85087         7.77511        -0.44178
   C       -1.01147         8.53604        -1.27310
   C       -0.03929         7.64649        -1.89315
   C        0.97927         7.99768        -2.72706
   C        1.25860         9.34281        -3.05576
   N        1.52264        10.43238        -3.29306
   C        1.85224         7.04003        -3.28742
   N        2.55844         6.26455        -3.74972
   C       -1.32198         9.89382        -1.26631
   C       -2.39224        10.17221        -0.43348
   S       -3.01188         8.73144         0.36319
   C       -2.94758        11.44446        -0.11928
   S       -3.50411        11.75095         1.48852
   C       -3.74506        13.44008         1.18812
   C       -3.39251        13.76131        -0.13305
   C       -3.00957        12.60768        -0.89711
   C       -2.75216        12.73114        -2.29050
   C       -2.68683        11.57819        -3.23119
   O       -1.92754        11.50521        -4.15393
   O       -3.62482        10.62251        -3.03596
   C       -2.67183        13.99068        -2.83365
   C       -2.90195        15.13232        -2.06098
   C       -3.28771        15.04332        -0.74294
   O       -3.54183        16.14234        -0.00555
   C       -4.26500        14.20939         2.26235
   C       -4.98678        15.39081         2.25600
   C       -5.38189        15.77189         3.53538
   C       -4.98131        14.86417         4.53185
   S       -4.09268        13.55579         3.89207
   C       -5.46517        15.31760         5.77913
   C       -6.17428        16.52554         5.57701
   C       -6.12946        16.85414         4.16120
   C       -6.64303        17.95049         3.53389
   C       -7.36189        18.96745         4.19993
   N       -7.95459        19.81161         4.69907
   C       -6.47145        18.15423         2.14778
   N       -6.32033        18.32889         1.02423
   C       -6.70448        17.04728         6.74941
   C       -6.41397        16.25576         7.85457
   S       -5.45415        14.83442         7.40542
   C       -6.74507        16.33737         9.22177
   C       -7.43720        17.27104         9.94233
   C       -7.70595        17.14730        11.36811
   C       -7.47661        16.05539        12.16622
   C       -7.77325        16.00942        13.54545
   N       -7.98307        15.89618        14.66850
   C       -6.94703        14.81253        11.75995
   N       -6.53885        13.76496        11.52182
   C       -8.32621        18.38857        11.81556
   C       -8.49807        19.23966        10.68846
   C       -7.97545        18.57653         9.48350
   O       -7.98467        19.03483         8.35999
   C       -9.06931        20.47507        10.79247
   C       -9.50167        20.92771        12.05879
   C       -9.32734        20.08567        13.19496
   C       -8.73365        18.81047        13.05393
   C       -9.75909        20.54759        14.45501
   C      -10.33679        21.78084        14.58795
   C      -10.50870        22.60864        13.46838
   C      -10.10004        22.19126        12.23066
   H       -1.84157        -2.15651         0.73221
   H       -2.76450         1.42654         4.07876
   H       -4.01557        -0.15916         5.42353
   H       -4.88590        -2.43257         5.79641
   H       -4.43382        -4.21939         4.16240
   H       -3.10911        -3.74639         2.14048
   H        0.11968         2.27096        -1.44931
   H        0.94052         4.70677        -2.12644
   H       -0.78224        10.65017        -1.80600
   H       -4.21802        10.83096        -2.30236
   H       -2.44581        14.08951        -3.88368
   H       -2.80583        16.10715        -2.51732
   H       -3.43223        16.94107        -0.53947
   H       -5.22619        15.92616         1.35907
   H       -7.27689        17.95486         6.82995
   H       -6.36883        15.49240         9.78676
   H       -9.18917        21.09732         9.91806
   H       -8.61454        18.20102        13.93525
   H       -9.62548        19.90608        15.31373
   H      -10.66490        22.12531        15.55720
   H      -10.96648        23.57873        13.59169
   H      -10.22960        22.82401        11.36488
*
