# ORCA input file
# SCF done       -197.292513297742          0.000670245417
! CAM-B3LYP def2-SVP def2/J RIJCOSX Grid4 TightSCF
%maxcore 5000
%tddft
    Mode sTDDFT
    Ethresh 5.0
    maxcore 5000
end

%pal
  nprocs 6
  end
* xyz 0 1
   C       -4.97462         5.33164        -0.04804
   C       -5.51519         4.47125         0.86506
   C       -6.88189         4.12185         0.91050
   N       -7.98034         3.80009         0.99617
   C       -4.79293         3.83389         1.89755
   N       -4.28457         3.31099         2.78381
   C       -5.69775         6.05775        -1.08492
   C       -4.77362         6.84356        -1.83491
   C       -5.17674         7.64993        -2.86074
   C       -6.54881         7.71375        -3.18892
   C       -7.47924         6.92804        -2.44862
   C       -7.03253         6.09916        -1.39466
   C       -8.84683         7.00119        -2.78437
   C       -9.27628         7.81229        -3.79910
   C       -8.35933         8.58687        -4.52578
   C       -7.02467         8.53802        -4.22776
   C       -3.41726         6.63361        -1.31142
   O       -2.37431         7.08573        -1.73503
   C       -3.57302         5.70768        -0.15656
   C       -2.51424         5.27282         0.55967
   C       -1.19445         5.85739         0.37501
   S       -0.92410         7.40435         1.06445
   C        0.72402         7.43963         0.56247
   C        1.04631         6.28845        -0.15389
   C       -0.06004         5.37901        -0.26192
   C        0.06773         4.19370        -1.04681
   C       -1.09949         3.31368        -1.25911
   O       -2.02898         3.22928        -0.49291
   O       -1.10828         2.59006        -2.39007
   C        1.28970         3.92117        -1.61755
   C        2.37876         4.79018        -1.48911
   C        2.27157         5.98118        -0.80953
   O        3.26871         6.87772        -0.76426
   C        1.53269         8.56856         0.91237
   C        1.19850         9.90652         1.02218
   C       -0.03313        10.64571         0.62475
   O        0.00726        11.47302        -0.24512
   O       -1.16397        10.34296         1.26137
   C        2.44393        10.52552         1.35915
   N        3.38963         9.62884         1.46544
   O        2.84123         8.42800         1.19661
   C        2.54612        11.95067         1.56096
   S        3.54409        12.97288         0.63403
   C        2.75667        14.40887         1.21483
   C        1.68307        14.07547         2.05589
   C        1.62060        12.67574         2.31145
   C        0.65961        12.13842         3.20657
   C        0.77016        10.74917         3.70593
   O       -0.12148         9.92327         3.70171
   O        1.96984        10.49245         4.21361
   C       -0.32530        12.97024         3.67835
   C       -0.36037        14.31936         3.30825
   C        0.61362        14.88959         2.51646
   O        0.53338        16.17386         2.11414
   C        3.24605        15.66024         0.78257
   C        3.16635        16.83190         1.47995
   C        3.44197        18.15877         0.96986
   C        3.77616        18.49394        -0.31770
   C        3.99992        19.81447        -0.75902
   N        4.20055        20.86250        -1.18356
   C        3.95207        17.58744        -1.38353
   N        4.11369        16.92211        -2.30576
   C        3.23888        19.10569         2.06184
   C        2.89921        18.37872         3.23763
   C        2.88606        16.93517         2.93632
   O        2.78500        16.03309         3.74228
   C        2.64684        19.00325         4.42427
   C        2.70697        20.41385         4.48851
   C        3.04415        21.14900         3.31613
   C        3.31381        20.47265         2.10400
   C        3.10148        22.55561         3.38970
   C        2.83764        23.20684         4.56382
   C        2.50651        22.48178         5.71811
   C        2.44197        21.11518         5.68094
   H       -4.45657         8.23908        -3.40890
   H       -7.76180         5.51867        -0.85210
   H       -9.54923         6.40407        -2.22158
   H      -10.32588         7.86271        -4.04724
   H       -8.71610         9.22223        -5.32259
   H       -6.31371         9.13212        -4.78305
   H       -2.63097         4.57028         1.37308
   H       -0.35575         2.78608        -2.96432
   H        1.44853         3.00542        -2.17138
   H        3.31392         4.53449        -1.96741
   H        4.04834         6.55218        -1.23284
   H       -1.01707         9.93884         2.14489
   H        2.02444         9.58707         4.56203
   H       -1.07810        12.58356         4.34781
   H       -1.17680        14.93390         3.66204
   H       -0.25737        16.58507         2.48879
   H        3.75492        15.65355        -0.17300
   H        2.39854        18.42827         5.30437
   H        3.57340        21.05871         1.23695
   H        3.35808        23.10905         2.49828
   H        2.88397        24.28459         4.60993
   H        2.30223        23.01136         6.63673
   H        2.18719        20.55177         6.56690
*
