# ORCA input file
# SCF done       -259.401026748449          0.000901353716
! CAM-B3LYP def2-SVP def2/J RIJCOSX Grid4 TightSCF
%maxcore 5000
%tddft
    Mode sTDDFT
    Ethresh 5.0
    maxcore 5000
end

%pal
  nprocs 6
  end
* xyz 0 1
   C        2.56418         3.25533        -0.13959
   C        3.14752         3.91317         0.91323
   C        4.52340         4.20787         0.98677
   N        5.63153         4.49027         1.09088
   C        2.45789         4.31280         2.07576
   N        1.94837         4.64315         3.05057
   C        3.28399         2.61978        -1.23834
   C        2.42491         1.65949        -1.84826
   C        2.84260         0.88156        -2.88872
   C        4.15737         1.03922        -3.38298
   C        5.01485         2.01021        -2.78982
   C        4.55743         2.79710        -1.70763
   C        6.32041         2.16391        -3.29871
   C        6.76133         1.39405        -4.34038
   C        5.91704         0.43687        -4.92241
   C        4.64307         0.26323        -4.45366
   C        1.10429         1.70002        -1.19289
   O        0.13894         1.00736        -1.41689
   C        1.18224         2.83676        -0.23292
   C        0.04375         3.33298         0.32377
   C       -0.14406         4.62151         0.88209
   S        0.71993         5.95643         0.18685
   C       -0.10593         7.12464         1.14740
   C       -1.01121         6.49556         2.01960
   C       -1.02913         5.07109         1.87433
   C       -1.82795         4.30363         2.76030
   C       -1.83193         2.80348         2.74836
   F       -0.60409         2.26131         2.72166
   F       -2.43568         2.28705         3.82917
   F       -2.49846         2.29349         1.68977
   C       -2.60990         4.94849         3.68568
   C       -2.63196         6.34096         3.79589
   C       -1.83907         7.12910         2.99199
   O       -1.78449         8.47536         3.06636
   C       -2.52987         9.14573         4.06014
   C        0.15511         8.50547         1.00137
   C        1.16303         9.03100         0.26147
   C        1.38862        10.42922         0.14456
   C        0.57803        11.45765         0.54828
   C        1.11414        12.74038         0.31070
   C        0.54247        13.99111         0.62981
   C       -0.71924        14.11583         1.33042
   C       -1.68991        15.06045         1.15242
   C       -2.76781        14.92004         2.05303
   C       -2.63538        13.88792         2.93590
   S       -1.14912        13.05056         2.64469
   C       -3.57433        13.45076         4.00036
  Cl       -4.12883        15.97283         2.03283
   C        1.27459        15.11456         0.26087
   C        2.55154        15.04824        -0.35333
   C        3.13308        13.79803        -0.65000
   C        2.37903        12.67394        -0.32975
   S        2.86402        11.02227        -0.58871
   C        4.45650        13.66866        -1.22450
   C        4.88497        12.75814        -2.14786
   C        6.26287        12.87341        -2.43154
   C        6.90570        13.85126        -1.72958
   S        5.78501        14.66799        -0.69486
   C        8.33876        14.23610        -1.76457
  Cl        7.05263        11.85441        -3.57234
   C        3.08404        16.33477        -0.59956
   C        2.27685        17.35406        -0.18039
   S        0.79188        16.76597         0.53734
   C        2.51921        18.75118        -0.27372
   C        1.65183        19.77548         0.05270
   C        2.22601        21.02969        -0.15620
   C        3.54517        20.95545        -0.63635
   S        4.07069        19.34249        -0.84423
   C        4.05327        22.26723        -0.80379
   C        3.03596        23.17729        -0.42942
   C        1.85940        22.42901        -0.01347
   C        0.66870        22.92764         0.42561
   C       -0.40092        22.08894         0.80462
   N       -1.27189        21.41006         1.11277
   C        0.42498        24.31311         0.53752
   N        0.22177        25.43665         0.63770
   C        3.44133        24.49218        -0.55153
   C        4.76596        24.60739        -0.99053
   S        5.50372        23.02901        -1.26704
   C        5.37860        25.85774        -1.16874
   C        6.67415        26.17049        -1.48944
   C        7.22267        27.50878        -1.61811
   C        6.52736        28.68934        -1.65580
   C        7.13266        29.95619        -1.79420
   N        7.56289        31.01497        -1.90266
   C        5.12376        28.81713        -1.59642
   N        3.99067        29.00299        -1.56499
   C        8.67057        27.37741        -1.75027
   C        8.99873        25.99133        -1.78237
   C        7.76606        25.20377        -1.65439
   O        7.67672        23.98629        -1.66899
   C       10.28617        25.55366        -1.90054
   C       11.32938        26.50278        -1.98495
   C       11.01197        27.89111        -1.94725
   C        9.66681        28.31317        -1.83152
   C       12.06104        28.82913        -2.02382
   C       13.36192        28.41764        -2.13183
   C       13.67307        27.05056        -2.16970
   C       12.67813        26.11324        -2.09874
   H        2.17833         0.15415        -3.33114
   H        5.22398         3.53123        -1.28245
   H        6.96780         2.90003        -2.84506
   H        7.76398         1.51797        -4.72151
   H        6.28091        -0.16196        -5.74396
   H        3.98828        -0.47215        -4.89793
   H       -0.82866         2.69791         0.21752
   H       -3.22083         4.37196         4.36245
   H       -3.26976         6.77971         4.54441
   H       -2.24435         8.81585         5.06243
   H       -3.60495         9.00373         3.91725
   H       -2.28250        10.20014         3.94218
   H       -0.49522         9.16499         1.55091
   H        1.85982         8.37701        -0.24660
   H       -0.38930        11.29266         0.98198
   H       -1.66845        15.81203         0.38576
   H       -4.23624        14.27283         4.26212
   H       -3.03026        13.13127         4.88688
   H       -4.18549        12.61546         3.65514
   H        4.24503        12.05120        -2.64177
   H        8.82598        13.98464        -0.82225
   H        8.44564        15.30835        -1.92139
   H        8.84037        13.70513        -2.56973
   H        4.02696        16.51282        -1.08318
   H        0.65723        19.59785         0.42050
   H        2.83374        25.35304        -0.33464
   H        4.70378        26.68635        -0.98899
   H       10.50673        24.49675        -1.92443
   H        9.46191        29.37139        -1.80270
   H       11.81667        29.88082        -1.99511
   H       14.15847        29.14425        -2.18839
   H       14.70469        26.74342        -2.25461
   H       12.91151        25.05890        -2.12694
*
