# ORCA input file
# SCF done       -166.569239255331          0.000782685578
! CAM-B3LYP def2-SVP def2/J RIJCOSX Grid4 TightSCF
%maxcore 5000
%tddft
    Mode sTDDFT
    Ethresh 5.0
    maxcore 5000
end

%pal
  nprocs 6
  end
* xyz 0 1
   C       -0.87388         2.73682         6.82392
   C       -0.58183         3.19257         5.58617
   C       -0.44066         2.35862         4.45634
   C       -0.71329         0.91564         4.57965
   C       -1.00233         0.27876         5.73556
   S       -1.11774         1.07401         7.25191
   C       -0.59973         0.39547         3.26151
   C       -0.27747         1.42565         2.38265
   C       -0.14218         0.96928         1.05341
   C       -0.36480        -0.36828         0.95991
   S       -0.74066        -1.12618         2.47017
   C       -0.15314         2.65876         3.12401
   C        0.20912         3.88632         2.49808
   C        0.72901         4.98182         3.09595
   C        1.06830         6.18917         2.41758
   C        0.91566         6.54245         1.10492
   C        1.37446         7.84702         0.80451
   C        1.89546         8.50765         1.95010
   S        1.79930         7.48621         3.35589
   C        2.39889         9.78683         1.90497
   C        2.39066        10.44762         0.67569
   C        1.87105         9.78925        -0.46930
   C        1.36668         8.50982        -0.42405
   S        1.96803        10.81404        -1.87610
   C        2.69749        12.10613        -0.93353
   C        2.84690        11.75396         0.37992
   C        3.04378        13.34505        -1.56576
   C        3.70685        14.34891        -0.91004
   C        4.05806        15.58241        -1.46689
   C        3.83526        15.84124        -2.89857
   C        3.19329        14.99409        -3.73171
   S        2.54355        13.48373        -3.24552
   C        4.42636        17.10799        -3.15046
   C        4.96727        17.61317        -1.96890
   C        5.56432        18.87949        -2.15616
   C        5.46708        19.29166        -3.44702
   S        4.64728        18.17210        -4.48400
   C        4.72281        16.68027        -0.89876
   C        5.11696        16.92725         0.44514
   C        4.63039        16.31907         1.55245
   C        5.08012        16.55573         2.88300
   C        6.00466        17.43762         3.37126
   C        6.19974        17.34814         4.77037
   C        5.38568        16.34477         5.36199
   S        4.39544        15.56114         4.16477
   C        5.41713        16.05854         6.70709
   C        6.28944        16.79385         7.51039
   C        7.09339        17.80537         6.92342
   C        7.06200        18.09168         5.57774
   S        8.09222        18.58231         8.12164
   C        7.44617        17.54878         9.38806
   C        6.51288        16.67586         8.90359
   C        7.92424        17.68778        10.73357
   C        7.63643        16.78907        11.72360
   C        8.09895        16.87134        13.04385
   C        9.04527        17.93076        13.44188
   C        9.44784        18.93043        12.62943
   S        8.92637        19.10988        11.00607
   C        9.39111        17.63804        14.78680
   C        8.71424        16.48964        15.20108
   C        9.01536        16.14826        16.53908
   C        9.89491        17.02286        17.09197
   S       10.39059        18.29478        16.02395
   C        7.88926        16.01521        14.12475
   C        7.03476        14.86187        14.23928
   C        5.91053        14.63360        13.56299
   H       -0.98264         3.39473         7.66941
   H       -0.48128         4.26019         5.45949
   H       -1.17837        -0.78438         5.78122
   H        0.10553         1.58737         0.20929
   H       -0.33183        -0.97992         0.07931
   H        0.08527         3.89772         1.42274
   H        0.94984         4.97100         4.15283
   H        0.48482         5.89581         0.36208
   H        2.78935        10.27041         2.78649
   H        0.97562         8.02824        -1.30648
   H        3.26144        12.39800         1.13397
   H        4.00831        14.14703         0.10533
   H        3.03160        15.21796        -4.77449
   H        6.04081        19.45805        -1.38536
   H        5.83102        20.20552        -3.87466
   H        5.85965        17.70508         0.56776
   H        3.82718        15.60297         1.46556
   H        6.53666        18.14023         2.75573
   H        4.79358        15.28833         7.13282
   H        7.68584        18.86199         5.15288
   H        5.98338        15.96572         9.51234
   H        7.04272        15.92877        11.45425
   H       10.12812        19.70314        12.95163
   H        8.60758        15.30494        17.06692
   H       10.29918        17.01001        18.08546
   H        7.34813        14.14586        14.99040
   H        5.50724        15.33948        12.85797
   H        5.33464        13.73818        13.72339
*
