# ORCA input file
# SCF done       -198.653249667113          0.000499735980
! CAM-B3LYP def2-SVP def2/J RIJCOSX Grid4 TightSCF
%maxcore 5000
%tddft
    Mode sTDDFT
    Ethresh 5.0
    maxcore 5000
end

%pal
  nprocs 6
  end
* xyz 0 1
   C       -2.57147         0.73670         0.94846
   C       -2.62979         2.07558         1.11710
   C       -3.73793         2.74874         1.67468
   C       -4.87507         1.96904         2.19577
   C       -5.00122         0.62741         2.10201
   S       -3.82570        -0.38571         1.36889
   C       -5.75048         2.92349         2.78178
   C       -5.20990         4.19791         2.63827
   C       -6.03961         5.19489         3.19613
   C       -7.16429         4.66094         3.74094
   S       -7.26613         2.93850         3.59740
   C       -3.95720         4.10334         1.92575
   C       -3.18854         5.25616         1.59193
   C       -2.25013         5.35925         0.62475
   C       -1.51925         6.54990         0.33594
   C       -1.51434         7.76006         0.97147
   C       -0.65555         8.71726         0.37871
   C        0.02097         8.19846        -0.75729
   S       -0.42924         6.54124        -1.04631
   C        0.90326         8.94727        -1.50251
   C        1.12858        10.26724        -1.11345
   C        0.45531        10.78510         0.02195
   C       -0.42523        10.03636         0.76953
   S        0.89509        12.44505         0.30424
   C        1.96795        12.44653        -1.09093
   C        1.97398        11.23501        -1.71464
   C        2.69545        13.64815        -1.43587
   C        3.50803        13.69208        -2.57853
   C        4.19102        14.84514        -2.87772
   C        4.07834        15.98010        -2.05917
   C        3.27264        15.95062        -0.93130
   C        2.59166        14.78844        -0.63165
   C        4.92350        17.02278        -2.60122
   C        5.56303        16.53137        -3.75226
   C        5.08689        15.13047        -4.06566
   C        6.24455        14.12869        -4.17691
   C        7.06612        14.04998        -2.89524
   C        4.18494        15.10407        -5.32262
   C        4.83998        15.55762        -6.62047
   C        6.49893        17.30130        -4.40134
   C        6.76664        18.60308        -3.95474
   C        6.09799        19.08515        -2.82522
   C        5.19114        18.30228        -2.13934
   C        7.74437        19.39662        -4.67653
   C        7.85856        20.72975        -4.62006
   C        8.82705        21.49016        -5.39295
   C        9.13370        21.09364        -6.65992
   S       10.23937        22.11121        -7.49217
   C       10.33152        23.13400        -6.09494
   C        9.53198        22.70068        -5.02314
   C        9.53843        23.46025        -3.82396
   C        8.77395        22.95230        -2.62888
   C        9.43265        21.69961        -2.04598
   C       10.28114        24.63328        -3.73809
   C       10.21171        25.52855        -2.52792
   C       11.16622        25.09255        -1.41533
   C       11.10595        25.03771        -4.81486
   C       11.95758        26.19753        -4.96562
   C       12.49700        26.26603        -6.22163
   S       12.09397        24.95683        -7.24921
   C       11.10072        24.27989        -5.99295
   C       12.32463        27.17577        -3.97027
   C       12.47009        28.48931        -4.27135
   C       12.86890        29.55176        -3.41887
   C       13.30560        29.59635        -2.12761
   C       13.57821        28.55787        -1.14478
   O       13.45217        27.35674        -1.26784
   N       14.04064        29.11598         0.04259
   C       14.15061        30.46984         0.08279
   C       14.57083        31.24689         1.13255
   C       14.97526        30.78460         2.39659
   N       15.31320        30.47141         3.44862
   C       14.61710        32.64865         0.98306
   N       14.65881        33.78919         0.86815
   S       13.67102        31.18078        -1.43388
   C       14.37565        28.25259         1.14945
   H       -1.71113         0.24532         0.52683
   H       -1.76204         2.65176         0.83240
   H       -5.86117         0.09984         2.48343
   H       -5.82513         6.24843         3.19829
   H       -7.96631         5.17729         4.23155
   H       -3.43932         6.14304         2.15955
   H       -2.03962         4.52038        -0.02186
   H       -2.10333         7.97504         1.84468
   H        1.40483         8.53242        -2.36277
   H       -0.92686        10.45164         1.62939
   H        2.56225        11.01139        -2.58633
   H        3.59623        12.82408        -3.21291
   H        3.17840        16.81801        -0.29540
   H        1.96244        14.74990         0.24592
   H        6.89677        14.42433        -4.99982
   H        5.83734        13.14230        -4.40949
   H        7.48659        15.02313        -2.65084
   H        7.88264        13.34131        -3.01473
   H        6.44752        13.72601        -2.06123
   H        3.31972        15.74298        -5.12609
   H        3.81748        14.08265        -5.44579
   H        5.13535        16.60157        -6.56062
   H        4.12867        15.45463        -7.43740
   H        5.71285        14.95469        -6.85697
   H        7.03859        16.92054        -5.25634
   H        6.32057        20.07513        -2.45747
   H        4.70580        18.67849        -1.25097
   H        8.42231        18.83514        -5.30764
   H        7.16908        21.29201        -4.01153
   H        8.72303        20.25184        -7.18213
   H        7.74323        22.73821        -2.90927
   H        8.73384        23.70594        -1.84732
   H       10.46092        21.91371        -1.76315
   H        9.44069        20.88672        -2.76663
   H        8.89212        21.36913        -1.16147
   H        9.19130        25.56333        -2.14173
   H       10.45778        26.54559        -2.83811
   H       11.18361        25.83792        -0.62389
   H       12.17789        24.97978        -1.79569
   H       10.85884        24.14235        -0.98734
   H       13.19234        27.00254        -6.57534
   H       12.54480        26.82685        -2.97469
   H       12.21543        28.80791        -5.27515
   H       12.81161        30.52843        -3.88848
   H       14.19478        27.23012         0.81625
   H       13.75037        28.47264         2.01513
   H       15.42380        28.36746         1.42627
*
