# ORCA input file
# SCF done       -194.306086596430          0.000480865943
! CAM-B3LYP def2-SVP def2/J RIJCOSX Grid4 TightSCF
%maxcore 5000
%tddft
    Mode sTDDFT
    Ethresh 5.0
    maxcore 5000
end

%pal
  nprocs 6
  end
* xyz 0 1
   C       10.90289        -1.74838        -1.47426
   N       10.69683        -2.95905        -1.88871
   C       11.61011        -3.73208        -1.22101
   C       12.47940        -2.89162        -0.38261
   C       13.42748        -3.72194         0.38198
   O       14.30853        -3.37011         1.12849
   C       13.01437        -5.09193         0.00360
   C       11.91853        -5.04077        -1.00093
   N       11.49267        -6.29588        -1.30474
   C       12.19989        -7.08884        -0.54871
   C       13.15667        -6.40099         0.30996
   C       11.98368        -1.62008        -0.48275
   C       12.39251        -0.40569         0.15627
   C       11.56748         0.60423         0.50655
   C       10.13103         0.58383         0.49715
   C        9.34825        -0.56644         0.74271
   C        7.90903        -0.53175         0.68590
   N        7.21061        -1.66133         0.85301
   C        7.82896        -2.78734         1.10327
   C        9.25616        -2.80014         1.26219
   N        9.95794        -1.71340         1.08149
   C        9.92613        -3.99943         1.61280
   N       10.44914        -4.98401         1.87479
   C        7.07659        -3.97811         1.24968
   N        6.48950        -4.95188         1.38504
   C        7.18136         0.65483         0.43466
   C        7.96140         1.82212         0.27148
   C        9.40526         1.77773         0.31414
   N        9.93975         2.98836         0.12609
   S        8.76691         4.05857        -0.06970
   N        7.51861         3.06293         0.05922
   C        5.76655         0.64143         0.33858
   C        4.94839         1.71524         0.00563
   C        3.60878         1.35779        -0.01260
   C        3.39954         0.00252         0.32427
   S        4.85827        -0.83223         0.63558
   C        2.00779        -0.25402         0.27013
   C        1.34181         0.92685        -0.11405
   C        2.32637         1.98021        -0.29706
   C        2.09467         3.27484        -0.65796
   C        3.13783         4.21493        -0.79943
   N        3.97979         4.98428        -0.91528
   C        0.79245         3.75605        -0.91036
   N       -0.26791         4.14281        -1.11208
   C       -0.03748         0.76266        -0.21314
   C       -0.42610        -0.52558         0.10688
   S        0.93217        -1.55333         0.52940
   C       -1.74832        -1.04387         0.10198
   S       -3.06260        -0.09291        -0.54308
   C       -4.21039        -1.35802        -0.24140
   C       -3.57520        -2.43474         0.36276
   C       -2.19248        -2.26682         0.53790
   N       -4.24573        -3.63962         0.72706
   O       -5.40609        -3.76430         0.39480
   O       -3.60897        -4.45251         1.35991
   C       -5.59779        -1.19373        -0.53107
   C       -6.14151        -0.55242        -1.59081
   C       -7.57109        -0.10548        -1.54024
   O       -8.39668        -0.43550        -0.72592
   C       -7.70435         0.86566        -2.64018
   C       -8.77295         1.65342        -2.96240
   C       -8.67227         2.53708        -4.05940
   C       -7.45450         2.59739        -4.79968
   C       -7.35853         3.48585        -5.88833
   C       -8.43320         4.26585        -6.21427
   C       -9.63937         4.21973        -5.50056
   C       -9.74909         3.36494        -4.43949
   F       -8.34512         5.11224        -7.25366
   C       -6.36492         1.76911        -4.44608
   C       -6.49162         0.90845        -3.38862
   C       -5.56862        -0.07737        -2.83866
   C       -4.50422        -0.62226        -3.50320
   C       -3.77311        -1.73955        -3.04798
   N       -3.16329        -2.65961        -2.73371
   C       -4.05460        -0.17726        -4.76506
   N       -3.63634         0.15344        -5.78076
   H       10.33795        -0.92440        -1.87805
   H       12.05703        -8.15463        -0.59422
   H       13.81166        -6.87434         1.01392
   H       13.45320        -0.30804         0.34498
   H       11.99579         1.54267         0.83265
   H        5.34619         2.69031        -0.20791
   H       -0.73679         1.52882        -0.49701
   H       -1.56203        -3.02701         0.96283
   H       -6.29925        -1.58813         0.19919
   H       -9.68539         1.60043        -2.38776
   H       -6.44680         3.54463        -6.46195
   H      -10.45293         4.85911        -5.80437
   H      -10.66787         3.31216        -3.87532
   H       -5.45177         1.84221        -5.01522
*
