# ORCA input file
# SCF done       -273.660732167008          0.000462565749
! CAM-B3LYP def2-SVP def2/J RIJCOSX Grid4 TightSCF
%maxcore 5000
%tddft
    Mode sTDDFT
    Ethresh 5.0
    maxcore 5000
end

%pal
  nprocs 6
  end
* xyz 0 1
   C        0.16042         1.16495        -8.50897
   C        0.20607         1.93379        -7.37214
   C       -0.86421         1.94536        -6.37570
   O       -1.88907         1.30966        -6.47403
   C       -0.55210         2.81241        -5.21387
   C        0.58732         3.66178        -5.17485
   C        0.61193         4.41526        -4.02356
   S       -0.70222         4.08095        -2.96827
   C       -1.32705         2.93951        -4.08646
   C       -2.59435         2.20838        -3.75989
   F       -2.43923         0.88291        -3.76906
   F       -3.02028         2.53282        -2.52571
   F       -3.59345         2.51090        -4.59182
   C        1.60134         5.45729        -3.61125
   F        2.83879         4.96830        -3.44415
   F        1.69264         6.47151        -4.47369
   F        1.25967         5.99983        -2.43081
   C        1.61477         3.70288        -6.24841
   O        2.48668         4.54762        -6.26853
   C        1.42291         2.66573        -7.26146
   C        2.29221         2.38641        -8.31791
   S        1.54766         1.32499        -9.47680
   C        3.66641         2.75184        -8.43864
   C        4.38111         3.15734        -9.55670
   N        3.93870         3.22748       -10.88357
   O        2.91806         2.61814       -11.18625
   O        4.59733         3.87724       -11.67168
   C        5.69425         3.58513        -9.15388
   C        5.79647         3.45935        -7.80514
   C        4.57442         2.91745        -7.29725
   C        4.30661         2.49348        -6.00506
   C        3.44960         1.42055        -5.63429
   C        3.40989         1.34259        -4.27095
   C        4.21895         2.37588        -3.71740
   N        4.24367         2.55526        -2.32324
   O        3.27870         2.13574        -1.70584
   O        5.20256         3.09278        -1.79330
   C        4.80708         3.11519        -4.76274
   C        5.44389         4.36408        -4.79369
   C        5.86269         5.10394        -3.71082
   C        6.41584         6.38168        -3.83526
   N        6.77143         7.15730        -2.76304
   C        6.64090         6.80781        -1.36565
   C        7.75073         5.86901        -0.90268
   C        7.31243         8.39658        -3.15254
   O        7.68812         9.25035        -2.38666
   C        7.27529         8.34938        -4.60788
   C        6.72406         7.13108        -4.99957
   C        6.70513         7.11036        -6.45074
   O        6.34537         6.27052        -7.24634
   N        7.24281         8.35704        -6.83568
   C        7.39712         8.64624        -8.24245
   C        8.83181         8.42359        -8.71470
   C        7.60405         9.11444        -5.74799
   C        8.18718        10.38812        -5.65410
   C        8.56006        11.25174        -6.65104
   C        9.16131        12.50609        -6.42784
   C        9.52279        13.12140        -5.23521
   C       10.11494        14.37658        -5.51928
   C       10.09851        14.51930        -6.98845
   C        9.53367        13.40182        -7.51271
   C       10.57759        15.59962        -7.73847
   N       10.95994        16.46651        -8.38801
   C       10.62147        15.29717        -4.62149
   C       11.20245        16.55926        -4.90985
   C       11.57833        17.17174        -3.72875
   C       11.23303        16.27303        -2.63230
   C       10.66442        15.15563        -3.15175
   C       10.21589        14.06076        -2.40249
   N        9.86325        13.17489        -1.76293
   C       12.18830        18.44239        -3.61504
   C       12.53537        19.02291        -2.43537
   C       13.14166        20.29403        -2.31925
   C       13.50664        20.94683        -1.14219
   C       13.31918        20.40610         0.19840
   O       12.82550        19.32474         0.45015
   C       13.79676        21.31898         1.26663
   C       14.37897        22.59247         1.01595
   C       14.73148        23.23015         2.18150
   S       14.36957        22.31138         3.58632
   C       13.73356        21.04665         2.61285
   C       13.19277        19.81801         3.27981
   F       11.89640        19.62146         3.02852
   F       13.85103        18.70948         2.93270
   F       13.30665        19.92138         4.61651
   C       15.36705        24.57922         2.33143
   F       14.60778        25.56259         1.84305
   F       15.56576        24.86414         3.63121
   F       16.56323        24.65295         1.74364
   C       14.56806        23.13625        -0.34962
   O       15.05986        24.21845        -0.57502
   C       14.09222        22.22159        -1.39140
   C       14.16490        22.51390        -2.72827
   S       13.53578        21.27529        -3.71262
   H       -0.65981         0.54130        -8.80827
   H        6.44168         3.92828        -9.84263
   H        6.68117         3.62238        -7.22336
   H        2.99987         0.72611        -6.31718
   H        2.87468         0.62599        -3.67589
   H        5.56669         4.79909        -5.77556
   H        5.76343         4.69995        -2.71564
   H        5.66070         6.35750        -1.19383
   H        6.70295         7.75025        -0.81473
   H        7.68908         4.90837        -1.40719
   H        7.65510         5.70108         0.16584
   H        8.72402         6.31258        -1.09889
   H        7.05376         9.66247        -8.44778
   H        6.73494         7.94823        -8.76366
   H        9.53580         9.03190        -8.15103
   H        8.91446         8.67403        -9.76855
   H        9.10263         7.37862        -8.58637
   H        8.35321        10.69550        -4.62925
   H        8.40691        10.99529        -7.68830
   H        9.38609        12.72377        -4.24922
   H        9.37766        13.19646        -8.55613
   H       11.32464        16.97134        -5.89227
   H       11.40469        16.46701        -1.59052
   H       12.37954        18.96905        -4.54312
   H       12.35196        18.51815        -1.49729
   H       14.56543        23.41067        -3.16013
*
