# ORCA input file
# SCF done       -192.091466805428          0.000496841191
! CAM-B3LYP def2-SVP def2/J RIJCOSX Grid4 TightSCF
%maxcore 5000
%tddft
    Mode sTDDFT
    Ethresh 5.0
    maxcore 5000
end

%pal
  nprocs 6
  end
* xyz 0 1
   C        0.44513         1.71599         2.19094
   C       -0.81707         1.75021         1.66564
   C       -1.88463         0.95838         2.14123
   N       -2.78589         0.33964         2.48915
   C       -1.18922         2.52414         0.54911
   N       -1.53584         3.11881        -0.37003
   C        0.91335         0.79482         3.21766
   C        2.33846         0.74645         3.17653
   C        3.05419        -0.05459         4.01992
   C        2.36671        -0.84820         4.96495
   C        0.94319        -0.79355         5.02079
   C        0.22742         0.03941         4.13120
   C        0.27069        -1.58367         5.97548
   C        0.96796        -2.39001         6.83323
   C        2.36899        -2.44325         6.77729
   C        3.05327        -1.68969         5.86264
   C        2.82852         1.67819         2.14982
   O        3.96134         1.86010         1.77305
   C        1.61169         2.42422         1.68928
   C        1.77455         3.59425         1.03839
   C        0.81384         4.64053         0.77326
   C        0.92330         5.40293        -0.39136
   C        0.00305         6.38663        -0.67438
   F        0.18146         7.10672        -1.79682
   C       -1.05381         6.69421         0.18788
   C       -1.10713         6.00089         1.39847
   C       -0.20567         4.99722         1.66566
   F       -0.30282         4.35585         2.84519
   C       -2.03317         7.73896        -0.05271
   N       -2.69911         7.98162        -1.22289
   C       -2.76562         7.13505        -2.39340
   C       -3.31266         5.74860        -2.06770
   C       -3.56128         9.09610        -1.09846
   O       -4.26280         9.50000        -2.00528
   C       -3.37584         9.55041         0.25763
   C       -2.44082         8.67325         0.87894
   C       -2.23783         9.12147         2.23933
   O       -1.55563         8.69587         3.14707
   N       -3.08212        10.24249         2.35656
   C       -3.13057        11.01123         3.57655
   C       -2.29747        12.28689         3.47722
   C       -3.75617        10.51004         1.18703
   C       -4.67696        11.58797         1.05105
   C       -5.27393        11.88308        -0.12449
   C       -6.19815        12.96549        -0.35691
   C       -6.41943        13.38660        -1.67538
   C       -7.23706        14.45693        -1.95081
   F       -7.43370        14.80299        -3.23302
   C       -7.92262        15.14998        -0.94532
   C       -7.77671        14.68221         0.35997
   C       -6.91929        13.64150         0.63871
   F       -6.81510        13.26441         1.92990
   C       -8.78313        16.28313        -1.23150
   C       -8.41644        17.33521        -1.99324
   C       -9.23871        18.46490        -2.41061
   C      -10.59352        18.58043        -2.26110
   C      -11.34951        19.68415        -2.71263
   N      -12.01847        20.55286        -3.05135
   C      -11.42744        17.62313        -1.64426
   N      -12.16598        16.89219        -1.15619
   C       -8.36554        19.42843        -3.06583
   C       -7.03677        18.91424        -3.07926
   C       -7.00430        17.60321        -2.41411
   O       -6.02927        16.92981        -2.17198
   C       -5.99860        19.61073        -3.62901
   C       -6.24566        20.87642        -4.20468
   C       -7.57117        21.40081        -4.19195
   C       -8.62532        20.65820        -3.61434
   C       -7.80511        22.66958        -4.76157
   C       -6.78103        23.38657        -5.31769
   C       -5.47686        22.86853        -5.33088
   C       -5.21497        21.64022        -4.78739
   H        4.13265        -0.07922         3.96984
   H       -0.84832         0.07382         4.20417
   H       -0.80784        -1.54095         6.01334
   H        0.44372        -2.99171         7.56043
   H        2.90310        -3.08369         7.46309
   H        4.13179        -1.72619         5.81523
   H        2.78800         3.79757         0.70493
   H        1.71684         5.20620        -1.09516
   H       -1.86224         6.24251         2.12841
   H       -1.78633         7.06064        -2.86852
   H       -3.44153         7.65310        -3.08044
   H       -2.64195         5.19432        -1.41519
   H       -3.43353         5.18491        -2.98837
   H       -4.28316         5.83018        -1.58283
   H       -2.71735        10.36382         4.35526
   H       -4.16981        11.24291         3.82546
   H       -1.26155        12.03716         3.26084
   H       -2.33559        12.82481         4.42035
   H       -2.66917        12.93677         2.68807
   H       -4.86925        12.17568         1.93447
   H       -5.02546        11.29356        -0.99743
   H       -5.92096        12.88054        -2.48731
   H       -8.30523        15.16052         1.17020
   H       -9.76083        16.25679        -0.76782
   H       -5.00082        19.19757        -3.62493
   H       -9.61549        21.08560        -3.61525
   H       -8.81079        23.06358        -4.75001
   H       -6.96997        24.35740        -5.75083
   H       -4.68090        23.44845        -5.77368
   H       -4.21313        21.23629        -4.79436
*
