# ORCA input file
# SCF done       -206.709575777188          0.000683542264
! CAM-B3LYP def2-SVP def2/J RIJCOSX Grid4 TightSCF
%maxcore 5000
%tddft
    Mode sTDDFT
    Ethresh 5.0
    maxcore 5000
end

%pal
  nprocs 6
  end
* xyz 0 1
   C       -0.92626         2.92896         5.43583
   C       -1.43481         4.19581         5.37097
   F       -0.85389         5.19026         6.05390
   C       -2.57332         4.47259         4.58732
   F       -3.04940         5.72366         4.54164
   C       -3.18898         3.47767         3.88071
   C       -2.68946         2.16174         3.92816
   C       -1.53654         1.88099         4.71748
   C       -1.01335         0.56926         4.77608
   C       -1.62609        -0.43229         4.06918
   C       -2.78288        -0.14486         3.29533
   C       -3.30856         1.11249         3.21393
   C       -3.27103        -1.38073         2.65528
   O       -4.22153        -1.45427         1.90407
   C       -2.37542        -2.46148         3.13189
   C       -1.32001        -1.85255         3.93018
   C       -0.19706        -2.46146         4.42624
   C        0.78988        -1.79474         5.18460
   N        1.62596        -1.31717         5.80934
   C        0.17563        -3.81064         4.24218
   N        0.56588        -4.88553         4.13288
   C       -2.50649        -3.81418         2.97268
   C       -3.44406        -4.59043         2.26027
   S       -3.28764        -6.32755         2.40981
   C       -4.64919        -6.59485         1.38322
   C       -5.19606        -5.38556         0.94206
   C       -4.50847        -4.27518         1.43298
   C       -6.48555        -5.29961         0.19782
   O       -7.35872        -6.11600         0.37109
   C       -6.62249        -4.11164        -0.70554
   C       -5.05843        -7.89459         0.96331
   N       -5.04389        -9.03570         1.72445
   C       -4.66673        -9.17362         3.11087
   C       -3.22392        -9.65019         3.25466
   C       -5.51935       -10.14648         1.00156
   O       -5.61612       -11.26005         1.48022
   C       -5.81253        -9.62442        -0.31232
   C       -5.51680        -8.23868        -0.30036
   C       -5.75616        -7.71355        -1.62595
   O       -5.59349        -6.61213        -2.10683
   N       -6.23537        -8.82003        -2.35010
   C       -6.58597        -8.70231        -3.74417
   C       -5.47905        -9.22609        -4.65640
   C       -6.26874        -9.96362        -1.58613
   C       -6.71005       -11.22332        -2.06308
   C       -6.70644       -12.32619        -1.27016
   C       -7.12922       -13.62242        -1.65999
   S       -7.06182       -14.90265        -0.48171
   C       -7.67952       -16.05456        -1.61722
   C       -7.91129       -15.46210        -2.86036
   C       -7.60988       -14.09275        -2.86534
   C       -8.46819       -16.23632        -3.98748
   O       -8.81747       -17.38772        -3.86036
   C       -8.56804       -15.50301        -5.29962
   C       -7.81955       -17.42865        -1.27683
   C       -8.16109       -17.94549        -0.07039
   C       -7.82429       -19.36070         0.26346
   O       -7.46297       -20.22045        -0.50189
   C       -7.95297       -19.44566         1.73340
   C       -7.63384       -20.48309         2.56172
   C       -7.80799       -20.32813         3.95523
   C       -8.30338       -19.09274         4.46599
   C       -8.46422       -18.94186         5.85815
   C       -8.15252       -19.96968         6.70298
   C       -7.66533       -21.19184         6.19675
   C       -7.49615       -21.36857         4.85215
   F       -7.36709       -22.18175         7.04830
   F       -8.30707       -19.82479         8.02516
   C       -8.63152       -18.03825         3.58416
   C       -8.46656       -18.21587         2.23630
   C       -8.74418       -17.33232         1.10840
   C       -9.60625       -16.26965         1.12698
   C      -10.03489       -15.58359        -0.02907
   N      -10.43812       -15.01648        -0.94177
   C      -10.23180       -15.79242         2.29804
   N      -10.75714       -15.36793         3.22545
   H       -0.05327         2.73469         6.03911
   H       -4.05986         3.70585         3.28644
   H       -0.14229         0.39141         5.38506
   H       -4.18577         1.30209         2.61409
   H       -1.77894        -4.42186         3.49773
   H       -4.77515        -3.25524         1.22738
   H       -7.58694        -4.14558        -1.20431
   H       -5.82734        -4.14086        -1.44687
   H       -6.53580        -3.18841        -0.13759
   H       -5.33640        -9.92247         3.54403
   H       -4.81908        -8.22107         3.62230
   H       -3.11067       -10.62060         2.77827
   H       -2.97262        -9.74627         4.30672
   H       -2.53247        -8.94883         2.79363
   H       -6.73657        -7.63502        -3.92813
   H       -7.52755        -9.22646        -3.92971
   H       -4.56592        -8.65932        -4.49298
   H       -5.77484        -9.11472        -5.69588
   H       -5.27312       -10.27604        -4.45947
   H       -7.06240       -11.28408        -3.08179
   H       -6.35594       -12.23281        -0.25036
   H       -7.74584       -13.45584        -3.71924
   H       -7.60218       -15.09095        -5.58260
   H       -9.28311       -14.68855        -5.20233
   H       -8.91274       -16.18928        -6.06847
   H       -7.57332       -18.14655        -2.05391
   H       -7.25259       -21.40928         2.15955
   H       -8.83921       -18.01436         6.26181
   H       -7.12175       -22.30973         4.48103
   H       -8.99463       -17.11010         3.99592
*
