# ORCA input file
# SCF done       -236.492184986442          0.000655412957
! CAM-B3LYP def2-SVP def2/J RIJCOSX Grid4 TightSCF
%maxcore 5000
%tddft
    Mode sTDDFT
    Ethresh 5.0
    maxcore 5000
end

%pal
  nprocs 6
  end
* xyz 0 1
   C        0.10717        -1.51732        -6.11518
   C        0.40798        -1.71782        -7.43323
   F        1.02788        -0.76280        -8.13502
   C        0.07005        -2.92985        -8.07062
   F        0.37675        -3.09788        -9.36221
   C       -0.56413        -3.92438        -7.38022
   C       -0.88804        -3.74777        -6.02067
   C       -0.54743        -2.52285        -5.37505
   C       -0.86396        -2.32308        -4.01258
   C       -1.50239        -3.31617        -3.31545
   C       -1.83441        -4.53991        -3.96767
   C       -1.54080        -4.75983        -5.28378
   C       -2.48399        -5.44401        -3.00710
   O       -2.90693        -6.56464        -3.19124
   C       -2.50409        -4.70545        -1.71761
   C       -1.95055        -3.37707        -1.92861
   C       -1.90312        -2.36625        -1.01224
   C       -2.44241        -2.46428         0.28953
   N       -2.90473        -2.49063         1.33895
   C       -1.35289        -1.09067        -1.26549
   N       -0.92116        -0.03951        -1.42083
   C       -2.89919        -5.31467        -0.57937
   C       -3.35207        -6.69134        -0.58043
   C       -2.54231        -7.73058        -0.20338
   N       -1.21642        -7.55531         0.21889
   O       -0.79598        -6.40423         0.24838
   O       -0.56964        -8.53604         0.52421
   C       -3.21879        -8.98959        -0.42285
   C       -4.44229        -8.71895        -0.92342
   C       -4.62591        -7.28315        -1.01309
   C       -5.72718        -6.55473        -1.38834
   C       -5.78193        -5.12186        -1.47122
   C       -6.88579        -4.76516        -2.16753
   C       -7.61378        -5.95219        -2.54242
   N       -8.85852        -5.83100        -3.18702
   O       -9.33402        -4.71000        -3.25010
   O       -9.40137        -6.82286        -3.64714
   C       -6.97835        -7.06933        -2.00850
   C       -7.39384        -8.41543        -1.90677
   C       -8.13690        -9.12483        -2.80704
   C       -8.51375       -10.46248        -2.60940
   O       -8.25694       -11.14405        -1.46163
   C       -8.72367       -12.39680        -1.59693
   C       -9.30348       -12.55765        -2.87005
   C       -9.17427       -11.31261        -3.52225
   O       -9.54107       -10.90907        -4.73068
   C      -10.23914       -11.82023        -5.55821
   C       -9.87554       -13.75379        -3.32350
   N      -10.33087       -14.74964        -3.66560
   C       -8.62308       -13.35816        -0.57061
   C       -8.14369       -13.09389         0.67726
   C       -8.06071       -14.04619         1.71843
   C       -7.73588       -13.78106         3.03485
   C       -7.79965       -14.98629         3.78818
   C       -8.15312       -16.04795         2.82454
   C       -8.31920       -15.47690         1.60497
   C       -8.29371       -17.41545         3.09171
   N       -8.40987       -18.54358         3.27197
   C       -7.63537       -15.14494         5.14592
   C       -7.76441       -16.34508         5.90040
   C       -7.62134       -16.06016         7.24286
   C       -7.36455       -14.62928         7.36789
   C       -7.35916       -14.07745         6.12823
   C       -7.12470       -12.72652         5.84556
   N       -6.91879       -11.61658         5.63385
   C       -7.75432       -16.99715         8.29478
   C       -7.79495       -16.68568         9.61921
   C       -8.01944       -17.66483        10.61252
   C       -8.35926       -17.46390        11.91759
   C       -8.19763       -18.57333        12.90005
   O       -7.99034       -19.73609        12.64525
   C       -8.29209       -17.93283        14.22635
   C       -8.11292       -18.48887        15.46025
   C       -8.23596       -17.67195        16.60622
   C       -8.53433       -16.28708        16.44831
   C       -8.65165       -15.47607        17.59499
   C       -8.48436       -16.01524        18.83967
   C       -8.19031       -17.38542        18.99471
   C       -8.06816       -18.19758        17.90216
   F       -8.03060       -17.88569        20.22616
   F       -8.59850       -15.24441        19.92776
   C       -8.71728       -15.73989        15.15770
   C       -8.60694       -16.55314        14.06138
   C       -8.78775       -16.28355        12.63567
   C       -9.45067       -15.20138        12.11685
   C       -9.87148       -15.08252        10.77509
   N      -10.27854       -14.94570         9.71061
   C       -9.89508       -14.11076        12.89487
   N      -10.25932       -13.19021        13.47474
   H        0.37267        -0.58413        -5.64344
   H       -0.81514        -4.84577        -7.88197
   H       -0.58945        -1.38843        -3.55051
   H       -1.80203        -5.69532        -5.75470
   H       -2.82025        -4.82339         0.38310
   H       -2.77218        -9.94567        -0.22927
   H       -5.16136        -9.45153        -1.22563
   H       -5.05468        -4.45709        -1.04993
   H       -7.21638        -3.77456        -2.41718
   H       -7.07002        -8.93320        -1.01402
   H       -8.44667        -8.69790        -3.74738
   H      -10.45641       -11.27662        -6.47509
   H      -11.17339       -12.14269        -5.09160
   H       -9.62837       -12.69817        -5.78468
   H       -8.98673       -14.34184        -0.82966
   H       -7.82838       -12.08604         0.91341
   H       -7.49739       -12.81696         3.43924
   H       -8.58101       -15.99320         0.70069
   H       -7.96761       -17.31251         5.48485
   H       -7.20279       -14.10346         8.28964
   H       -7.90726       -18.02708         7.99683
   H       -7.66599       -15.66006         9.93210
   H       -7.86149       -18.70186        10.33281
   H       -7.88234       -19.53852        15.56048
   H       -8.87993       -14.42645        17.49458
   H       -7.84308       -19.24386        18.03757
   H       -8.93381       -14.68732        15.06922
*
