# ORCA input file
# SCF done       -222.919758483005          0.000510943936
! CAM-B3LYP def2-SVP def2/J RIJCOSX Grid4 TightSCF
%maxcore 5000
%tddft
    Mode sTDDFT
    Ethresh 5.0
    maxcore 5000
end

%pal
  nprocs 6
  end
* xyz 0 1
   C        5.18743        -5.97450         0.52764
   C        5.96245        -4.88576         0.89398
   C        6.16527        -3.59396         0.19325
   O        5.69942        -3.21155        -0.84128
   N        7.05708        -2.85996         1.00176
   C        7.43329        -3.56655         2.14866
   O        8.17888        -3.18358         3.01060
   C        6.72351        -4.86983         2.06628
   C        6.75510        -5.94271         2.94290
   C        5.98230        -7.03327         2.57661
   C        5.21997        -7.04875         1.40275
   C        4.52182        -8.36306         1.31953
   O        3.77619        -8.78014         0.47826
   N        4.91944        -9.04550         2.45905
   C        5.79122        -8.33777         3.27199
   O        6.26385        -8.73100         4.30153
   C        7.48432        -1.59953         0.60803
   C        8.36479        -0.84675         1.28698
   C        8.84008         0.42756         0.85352
   S       10.05302         1.20518         1.83732
   C       10.21725         2.56753         0.75204
   C        9.33530         2.41598        -0.30236
   C        8.56654         1.21995        -0.24616
   C        7.64681         1.15465        -1.38330
   O        6.84560         0.29234        -1.65409
   C        7.88057         2.41885        -2.19125
   C        8.93107         3.23091        -1.45065
   O        9.30780         4.33433        -1.76058
   C       11.20133         3.55074         1.05123
   C       11.68829         4.43055         0.14584
   C       12.73930         5.37304         0.33134
   N       13.15245         5.98847         1.49051
   C       12.54484         5.92686         2.79791
   C       13.29432         4.97067         3.72393
   C       14.26284         6.83642         1.27036
   O       14.77746         7.49606         2.14729
   C       14.53775         6.69985        -0.14202
   C       13.57115         5.81352        -0.68852
   C       13.87960         5.62350        -2.08735
   O       13.35209         4.97214        -2.96187
   N       15.04769         6.39935        -2.29102
   C       15.52784         6.65148        -3.63099
   C       15.27716         8.09507        -4.05573
   C       15.43909         7.03479        -1.13965
   C       16.60906         7.84923        -0.98364
   C       17.80793         7.58025        -1.52793
   C       18.98569         8.38265        -1.35427
   S       20.49544         7.56192        -1.11769
   C       19.15020         9.75689        -1.35823
   C       18.09353        10.72885        -1.70379
   O       16.95722        10.42495        -2.02385
   C       18.56764        12.10342        -1.65990
   C       17.86483        13.27071        -1.86188
   N       18.71550        14.31723        -1.73504
   C       18.34106        15.70741        -1.80639
   C       17.95731        16.24352        -0.42892
   C       19.95620        13.85930        -1.45095
   C       19.91549        12.48189        -1.39481
   C       20.98496        11.53690        -1.14692
   O       22.15420        11.85746        -0.99521
   C       20.50508        10.13950        -1.12487
   C       21.33961         9.05516        -0.95797
   C       22.76018         9.08586        -0.66511
   C       23.71871         8.39099        -1.40371
   C       23.55199         7.50267        -2.57672
   O       22.54523         7.17063        -3.14892
   N       24.83891         7.09377        -2.93656
   C       25.82184         7.65095        -2.11758
   O       27.00729         7.47341        -2.20146
   C       25.08818         8.49664        -1.13878
   C       25.59319         9.30261        -0.13519
   C       24.64336         9.97780         0.61870
   C       23.27463         9.86129         0.37982
   C       22.55364        10.66574         1.40796
   O       21.37824        10.76381         1.63312
   N       23.55758        11.26926         2.14606
   C       24.83880        10.91592         1.75872
   O       25.85542        11.30103         2.26639
   C       25.02815         6.21696        -4.01334
   C       26.18992         5.75016        -4.43585
   H        4.60158        -5.98564        -0.37753
   H        7.34298        -5.93063         3.84679
   H        4.60258        -9.97995         2.67642
   H        7.03645        -1.27781        -0.32531
   H        8.78434        -1.20268         2.21666
   H        6.95549         2.98502        -2.31765
   H        8.23159         2.17112        -3.19589
   H       11.61647         3.48614         2.04659
   H       11.32346         4.39491        -0.87203
   H       11.49599         5.64405         2.68891
   H       12.59944         6.93540         3.22038
   H       13.35140         3.97019         3.29996
   H       12.79302         4.91795         4.68656
   H       14.30652         5.33583         3.87654
   H       14.96527         5.96585        -4.27221
   H       16.58924         6.40852        -3.71147
   H       14.21341         8.31690        -4.01274
   H       15.62042         8.23891        -5.07658
   H       15.80439         8.79133        -3.40740
   H       16.49441         8.68275        -0.30535
   H       17.96261         6.65624        -2.06955
   H       16.82515        13.40462        -2.08607
   H       17.49731        15.80426        -2.49414
   H       19.18549        16.27456        -2.20655
   H       17.11694        15.68398        -0.02561
   H       17.67703        17.29039        -0.50273
   H       18.79422        16.15321         0.25916
   H       20.78937        14.51880        -1.30930
   H       26.65077         9.40037         0.04896
   H       23.36836        11.89888         2.91293
   H       24.08437         5.95405        -4.47322
   H       27.12305         6.01549        -3.97416
   H       26.22334         5.07725        -5.27333
*
