# ORCA input file
# SCF done       -161.208659164220          0.000726799303
! CAM-B3LYP def2-SVP def2/J RIJCOSX Grid4 TightSCF
%maxcore 5000
%tddft
    Mode sTDDFT
    Ethresh 5.0
    maxcore 5000
end

%pal
  nprocs 6
  end
* xyz 0 1
   C       -1.79698         0.30831         4.56827
   C       -1.07935        -0.87007         4.49098
   C       -0.15877        -1.04658         3.45186
   C       -0.03949         0.00379         2.52703
   N       -0.70773         1.13046         2.61879
   C       -1.55799         1.29261         3.61851
   C        0.61397        -2.25512         3.30307
   C        1.80919        -2.40148         2.64766
   C        2.24237        -3.75667         2.76002
   C        1.18643        -4.46442         3.51145
   C        0.22454        -3.55927         3.82637
   C        1.10948        -5.83901         3.76682
   N        0.97823        -6.96348         3.96002
   C        3.41050        -4.30918         2.28904
   C        3.90649        -5.61757         2.53856
   C        5.08778        -5.80065         1.83971
   C        5.36887        -4.56779         1.12008
   C        4.39248        -3.66464         1.40265
   C        4.33431        -2.36352         0.89030
   N        4.31310        -1.30289         0.45026
   C        5.83830        -7.00280         1.88926
   N        6.79157        -7.43873         1.00804
   C        7.21232        -6.83699        -0.23633
   C        6.09548        -6.81202        -1.27465
   C        7.28483        -8.71646         1.36016
   O        8.08179        -9.33120         0.68799
   C        6.60652        -9.03435         2.59839
   C        5.71393        -7.98825         2.88381
   C        5.04927        -8.29586         4.14016
   O        4.24567        -7.68677         4.80826
   N        5.57701        -9.54800         4.50865
   C        5.10629       -10.23228         5.69001
   C        4.05618       -11.28679         5.34997
   C        6.51246       -10.00177         3.61399
   C        7.20980       -11.21561         3.74067
   C        8.26245       -11.55352         2.93204
   C        8.95030       -12.77921         2.98335
   C       10.29615       -12.98907         2.67524
   N       11.23484       -12.03299         2.24649
   O       12.32046       -12.44798         1.87794
   O       10.92573       -10.85378         2.28239
   C       10.64476       -14.34253         2.96515
   C        9.55338       -14.97606         3.48414
   C        8.44343       -14.07430         3.47497
   C        7.12133       -14.40848         3.69803
   C        5.97580       -13.82114         3.06520
   C        4.88528       -14.56053         3.38187
   C        5.27535       -15.62820         4.27169
   N        4.28684       -16.46066         4.82461
   O        3.13530       -16.06543         4.74865
   O        4.60334       -17.52111         5.33987
   C        6.64625       -15.56185         4.49034
   C        7.52046       -16.21900         5.40389
   C        7.39158       -17.46094         5.92432
   C        8.32753       -18.06515         6.83907
   C        9.63509       -17.61356         7.05577
   C       10.43709       -18.26666         7.97165
   C        9.92466       -19.37669         8.63046
   N        8.68942       -19.80974         8.44495
   C        7.91689       -19.18086         7.58935
   H       -2.50982         0.47206         5.36122
   H       -1.20580        -1.63518         5.24271
   H        0.61194        -0.08984         1.66891
   H       -2.06259         2.24829         3.65600
   H        2.37684        -1.62337         2.17719
   H       -0.69121        -3.76773         4.34780
   H        3.43889        -6.33618         3.18176
   H        6.22300        -4.37332         0.50110
   H        8.03432        -7.46348        -0.59601
   H        7.60567        -5.83474        -0.05065
   H        5.75147        -7.82361        -1.47639
   H        6.46888        -6.38247        -2.19997
   H        5.24905        -6.21985        -0.93335
   H        4.65871        -9.46392         6.32633
   H        5.95565       -10.67641         6.21586
   H        3.19878       -10.81503         4.87709
   H        3.72117       -11.77807         6.25884
   H        4.45703       -12.03945         4.67424
   H        6.91984       -11.88267         4.54025
   H        8.65676       -10.81207         2.24500
   H       11.62100       -14.75551         2.79386
   H        9.48903       -16.01964         3.72516
   H        6.01661       -13.01051         2.36454
   H        3.87616       -14.42339         3.04187
   H        8.39202       -15.63414         5.67114
   H        6.53220       -18.06277         5.67098
   H       10.02970       -16.78020         6.49255
   H       11.44985       -17.94194         8.15247
   H       10.52500       -19.94792         9.32512
   H        6.90745       -19.55838         7.49234
*
