# ORCA input file
# SCF done       -144.467947031735          0.000883452163
! CAM-B3LYP def2-SVP def2/J RIJCOSX Grid4 TightSCF
%maxcore 5000
%tddft
    Mode sTDDFT
    Ethresh 5.0
    maxcore 5000
end

%pal
  nprocs 6
  end
* xyz 0 1
   C        0.31154        -1.00124         2.43050
   O       -0.42814         0.07274         2.12858
   C        0.18194         1.05340         2.84185
   N        1.20089         0.58216         3.50896
   N        1.27738        -0.72611         3.24277
   C       -0.27434         2.40442         2.82178
   C       -1.33401         2.91965         2.12715
   C       -1.43240         4.31894         2.42562
   C       -0.32006         4.62310         3.34345
   C        0.36680         3.47255         3.57082
   C        0.04914         5.88559         3.82795
   N        0.41162         6.90706         4.20609
   C       -2.37459         5.20523         1.96118
   C       -2.55084         6.56182         2.35263
   C       -3.56565         7.12537         1.60111
   C       -4.07402         6.09859         0.70095
   C       -3.39265         4.94540         0.92666
   C       -3.62368         3.74005         0.25289
   N       -3.84580         2.76929        -0.31870
   C       -3.99542         8.46818         1.74616
   N       -4.73464         9.20288         0.85755
   C       -5.21146         8.80581        -0.44012
   C       -4.93837        10.52576         1.30764
   O       -5.54730        11.35707         0.67146
   C       -4.27975        10.57016         2.59647
   C       -3.71257         9.30456         2.83653
   C       -3.11280         9.32153         4.15973
   O       -2.55289         8.47387         4.81549
   N       -3.34038        10.63476         4.61730
   C       -2.86426        11.07309         5.90131
   C       -4.02701        11.39358         3.70557
   C       -4.36806        12.74386         3.92125
   C       -5.00337        13.49509         2.97589
   C       -5.37048        14.85596         3.12811
   C       -5.97007        15.53390         2.02986
   C       -6.38716        16.90796         2.10071
   N       -7.05135        17.45983         1.07103
   C       -7.21842        16.76860        -0.02231
   C       -6.68456        15.43706        -0.14191
   N       -6.11731        14.85627         0.88232
   C       -6.79432        14.73024        -1.36638
   N       -6.89294        14.19982        -2.37642
   C       -7.95896        17.32332        -1.09885
   N       -8.54877        17.71612        -1.99783
   C       -6.14668        17.68125         3.25346
   C       -5.55705        17.02903         4.34772
   C       -5.17975        15.63183         4.29490
   N       -4.63928        15.23392         5.44887
   S       -4.60526        16.47023         6.47347
   N       -5.26442        17.57710         5.53006
   C       -6.46308        19.07933         3.29461
   O       -6.50930        19.75853         4.46708
   C       -6.79927        21.00084         4.06618
   N       -6.91287        21.09175         2.78203
   N       -6.69786        19.87205         2.28417
   H        0.07343        -1.95572         2.00966
   H       -2.00215         2.37577         1.48863
   H        1.23851         3.33572         4.18104
   H       -1.98825         7.05504         3.12030
   H       -4.88116         6.21161         0.00384
   H       -4.41546         8.33962        -1.02126
   H       -5.54486         9.71439        -0.94409
   H       -6.06182         8.12584        -0.35760
   H       -2.35384        10.22333         6.35512
   H       -3.69295        11.38075         6.54131
   H       -2.16031        11.89991         5.79443
   H       -4.10403        13.19304         4.86744
   H       -5.25937        13.05708         2.01941
   H       -6.90798        21.78759         4.78330
*
