# ORCA input file
# SCF done       -217.240920853737          0.000526414087
! CAM-B3LYP def2-SVP def2/J RIJCOSX Grid4 TightSCF
%maxcore 5000
%tddft
    Mode sTDDFT
    Ethresh 5.0
    maxcore 5000
end

%pal
  nprocs 6
  end
* xyz 0 1
   C        2.11271         2.60531        -0.70446
   C        3.26505         3.05180        -0.11477
   C        4.55040         2.55686        -0.41979
   N        5.61868         2.19506        -0.63301
   C        3.32321         4.02759         0.90372
   N        3.44833         4.79284         1.75042
   C        2.01339         1.52678        -1.67641
   C        0.64412         1.24195        -1.89792
   C        0.22312         0.26750        -2.77022
   C        1.20035        -0.46019        -3.45677
   C        2.56684        -0.16640        -3.23062
   C        2.99265         0.81817        -2.34859
   S        3.60519        -1.17896        -4.18754
   C        2.20980        -1.97317        -4.86767
   C        1.02629        -1.50593        -4.40413
  Br        2.44742        -3.34219        -6.12703
   C       -0.19387         2.13956        -1.07531
   O       -1.40342         2.14446        -1.03418
   C        0.76300         3.05596        -0.39719
   C        0.45504         4.24039         0.19272
   C       -0.83664         4.72806         0.59441
   C       -1.07153         6.11259         0.51842
   C       -2.29275         6.61186         0.89029
   C       -3.28521         5.75611         1.40375
   C       -3.04456         4.39382         1.53006
   C       -1.83014         3.88756         1.11634
   C       -4.45571         6.54616         1.70567
   C       -4.19833         7.88776         1.35817
   C       -2.76872         8.04841         0.89335
   C       -1.91136         8.79177         1.94572
   C       -2.29905        10.23991         2.20389
   C       -2.67194         8.70265        -0.49243
   C       -3.37994         7.88507        -1.56691
   C       -5.19326         8.82935         1.43945
   C       -6.45843         8.46495         1.93704
   C       -6.67098         7.13677         2.34722
   C       -5.69421         6.17468         2.21472
   C       -7.54503         9.39627         2.03319
   C       -7.60264        10.62575         1.45495
   C       -8.71428        11.47944         1.56009
   C       -8.80303        12.69401         0.92912
   C       -9.90477        13.58354         0.90728
   C       -9.71932        14.68459         0.12647
   C       -8.44975        14.73201        -0.49301
   S       -7.50041        13.34120        -0.05508
   C       -7.94786        15.67590        -1.37412
   C       -8.62410        16.73525        -2.00932
   C       -7.86299        17.39440        -2.93187
   C       -6.54415        16.89962        -3.04785
   S       -6.28670        15.58908        -1.92459
   C       -5.57576        17.30933        -3.94136
   C       -4.28533        16.78125        -3.96538
   O       -3.86317        15.92899        -2.98767
   C       -3.22981        16.96464        -4.86207
   C       -2.82570        17.65140        -6.08565
   O       -3.41655        18.41068        -6.80934
   N       -1.50501        17.22856        -6.27604
   C       -1.01776        16.35446        -5.31217
   O        0.08829        15.88224        -5.29100
   C       -2.15623        16.18748        -4.39524
   C       -2.56482        15.56717        -3.22150
   C       -1.82776        14.79827        -2.30537
   C       -2.27995        14.40342        -1.07616
   C       -1.40470        13.83629        -0.13474
   C       -1.63153        13.57715         1.19197
   C       -2.83355        13.55869         1.98454
   C       -4.07937        13.15859         1.56111
   C       -5.19998        13.07330         2.40637
   N       -6.13730        12.98085         3.06509
   C       -4.29089        12.58957         0.29083
   N       -4.46943        12.01566        -0.68830
   C       -2.44527        13.76997         3.37563
   C       -1.03435        13.66826         3.46838
   C       -0.47346        13.46472         2.11473
   O        0.68441        13.28472         1.81365
   C       -0.36497        13.77600         4.66183
   C       -1.12205        14.01010         5.81583
   C       -2.52799        14.12356         5.70962
   C       -3.20764        14.00226         4.50291
   S       -3.26257        14.42712         7.25483
   C       -1.69233        14.39492         8.01273
   C       -0.66979        14.16922         7.15456
  Br       -1.55349        14.66526         9.86369
   H       -0.82768         0.07374        -2.91851
   H        4.04401         1.01110        -2.21499
   H        0.06905        -1.88087        -4.71723
   H        1.26626         4.94321         0.34928
   H       -0.29814         6.76073         0.13210
   H       -3.79548         3.73771         1.94278
   H       -1.62622         2.83561         1.22702
   H       -0.87275         8.76131         1.61028
   H       -1.97181         8.23542         2.88503
   H       -2.25472        10.81906         1.28537
   H       -1.60160        10.67852         2.91574
   H       -3.29982        10.30917         2.62433
   H       -1.61839         8.81829        -0.75501
   H       -3.12089         9.69604        -0.45731
   H       -2.94147         6.89328        -1.65598
   H       -3.29877         8.38695        -2.52762
   H       -4.43513         7.77338        -1.32743
   H       -5.01566         9.84314         1.11926
   H       -7.63882         6.86484         2.74353
   H       -5.88844         5.15079         2.49627
   H       -8.40798         9.05827         2.59475
   H       -6.78122        10.97797         0.84588
   H       -9.55974        11.15853         2.15453
   H      -10.80370        13.37386         1.45978
   H      -10.44929        15.46149        -0.01347
   H       -9.65358        16.96426        -1.79958
   H       -8.20846        18.21261        -3.53793
   H       -5.81296        18.05653        -4.68186
   H       -0.94638        17.54014        -7.05751
   H       -0.81174        14.58272        -2.60651
   H       -3.30200        14.62564        -0.80417
   H       -0.37126        13.71707        -0.44463
   H        0.70893        13.68540         4.70674
   H       -4.28011        14.10066         4.46854
   H        0.36203        14.11832         7.45061
*
