# ORCA input file
# SCF done       -218.203116553751          0.000170773460
! CAM-B3LYP def2-SVP def2/J RIJCOSX Grid4 TightSCF
%maxcore 5000
%tddft
    Mode sTDDFT
    Ethresh 5.0
    maxcore 5000
end

%pal
  nprocs 6
  end
* xyz 0 1
   C       -4.83894        -1.94583        -2.30662
   C       -5.78180        -2.76787        -2.86498
   C       -5.60132        -4.15175        -3.07145
   N       -5.51851        -5.28192        -3.25446
   C       -7.04597        -2.35319        -3.33569
   N       -8.08327        -2.09573        -3.75598
   C       -3.49721        -2.34166        -1.90551
   C       -2.78659        -1.18561        -1.50466
   C       -1.48434        -1.22898        -1.06926
   C       -0.84981        -2.47372        -1.03526
   C       -1.56771        -3.62512        -1.43921
   C       -2.88585        -3.58186        -1.87370
   S       -0.59457        -5.05920        -1.31796
   C        0.74503        -4.10592        -0.73764
   C        0.47966        -2.78191        -0.63746
  Br        2.36563        -4.94911        -0.31531
   C       -3.64431         0.00641        -1.65138
   O       -3.31640         1.14638        -1.40302
   C       -4.96890        -0.51212        -2.08932
   C       -6.14939         0.16438        -2.06523
   C       -6.35153         1.57995        -1.93869
   C       -7.51896         2.04030        -1.29969
   C       -7.71043         3.38825        -1.13802
   C       -6.75609         4.30290        -1.62351
   C       -5.63742         3.86194        -2.31737
   C       -5.44734         2.50696        -2.47623
   C       -7.19688         5.63797        -1.30651
   C       -8.44103         5.56457        -0.65320
   C       -8.85946         4.12106        -0.48148
   C      -10.19124         3.82858        -1.19708
   C      -10.15570         4.17926        -2.67974
   C       -8.98001         3.75028         1.00885
   C       -7.69304         3.99787         1.78680
   C       -9.09197         6.71090        -0.26887
   C       -8.51040         7.96717        -0.52820
   C       -7.24291         8.00910        -1.13888
   C       -6.58845         6.86505        -1.53172
   C       -9.21186         9.16732        -0.15932
   C       -8.82328        10.40907        -0.55172
   C       -9.38845        11.65227        -0.21757
   C       -8.79892        12.81643        -0.65445
   C       -9.12965        14.16726        -0.39262
   C       -8.26281        15.07624        -0.93208
   C       -7.20271        14.49387        -1.65754
   S       -7.35311        12.75839        -1.65586
   C       -6.09984        15.04088        -2.29442
   C       -5.63811        16.36520        -2.40712
   C       -4.43520        16.45728        -3.04707
   C       -3.88412        15.21639        -3.46584
   S       -4.99564        13.93294        -3.08269
   C       -2.61581        15.06759        -3.98771
   C       -1.91294        13.88534        -4.28920
   C       -0.52151        13.91145        -4.51856
   F        0.09637        15.10881        -4.55564
   C        0.26541        12.77779        -4.65255
   F        1.58727        12.95387        -4.80701
   C       -0.22733        11.46356        -4.56354
   C       -1.64163        11.40472        -4.47416
   C       -2.44915        12.57176        -4.34536
   N       -3.71921        12.16463        -4.31082
   N       -3.66581        10.86741        -4.40463
   N       -2.46777        10.35151        -4.50881
   C       -4.84334        10.05891        -4.34329
   C        0.64250        10.34637        -4.61367
   C        0.41442         9.05186        -4.22994
   C       -0.62853         8.44761        -3.44725
   C       -1.40045         9.06565        -2.48936
   C       -2.53371         8.48391        -1.90292
   N       -3.53076         8.09919        -1.47646
   C       -1.14494        10.35918        -1.99666
   N       -0.95623        11.39058        -1.52792
   C       -0.60106         7.01180        -3.69918
   C        0.55103         6.70907        -4.46735
   C        1.27191         7.96627        -4.77399
   O        2.31371         8.08709        -5.37705
   C        0.87810         5.42498        -4.82643
   C        0.02527         4.39272        -4.41538
   C       -1.12017         4.70474        -3.64655
   C       -1.44562         6.00440        -3.27596
   S       -2.03215         3.28220        -3.23917
   C       -0.88505         2.30231        -4.10736
   C        0.13470         2.99717        -4.66559
  Br       -1.14624         0.44492        -4.21675
   H       -0.96970        -0.32952        -0.76995
   H       -3.39156        -4.48713        -2.16512
   H        1.19087        -2.05137        -0.29780
   H       -7.06047        -0.42259        -2.09720
   H       -8.23352         1.32312        -0.92168
   H       -4.93077         4.56626        -2.72878
   H       -4.61049         2.14868        -3.05041
   H      -10.98299         4.40001        -0.70804
   H      -10.42528         2.76845        -1.08157
   H       -9.94255         5.23682        -2.82052
   H      -11.11621         3.95737        -3.13855
   H       -9.38901         3.60328        -3.19308
   H       -9.25317         2.69568         1.08499
   H       -9.78892         4.33663         1.44984
   H       -6.87578         3.40697         1.37919
   H       -7.82900         3.72248         2.83005
   H       -7.41111         5.04745         1.74189
   H      -10.05361         6.66534         0.22276
   H       -6.74777         8.95499        -1.28618
   H       -5.61026         6.92487        -1.98122
   H      -10.09805         9.05087         0.45162
   H       -7.95664        10.48162        -1.19499
   H      -10.26703        11.70693         0.40954
   H       -9.98932        14.42988         0.19893
   H       -8.35512        16.14213        -0.82037
   H       -6.17915        17.20479        -2.00750
   H       -3.90787        17.38104        -3.20976
   H       -2.04748        15.98375        -4.09234
   H       -5.70038        10.72562        -4.28594
   H       -4.80585         9.42157        -3.45775
   H       -4.90773         9.42684        -5.22901
   H        1.61292        10.52273        -5.06791
   H        1.76528         5.21884        -5.40450
   H       -2.32566         6.19732        -2.68514
   H        0.92856         2.54740        -5.23361
*
