# ORCA input file
# SCF done       -239.100057336013          0.000603826399
! CAM-B3LYP def2-SVP def2/J RIJCOSX Grid4 TightSCF
%maxcore 5000
%tddft
    Mode sTDDFT
    Ethresh 5.0
    maxcore 5000
end

%pal
  nprocs 6
  end
* xyz 0 1
   C       -0.32470         2.32394        -2.48071
   C       -0.17103         1.05405        -1.99287
   C        0.40129        -0.00882        -2.72358
   N        0.86417        -0.90715        -3.26761
   C       -0.58555         0.62173        -0.71453
   N       -0.90807         0.18967         0.29907
   C        0.01301         2.76664        -3.82594
   C       -0.42711         4.10286        -3.98835
   C       -0.25204         4.80475        -5.15661
   C        0.38863         4.15641        -6.21689
   C        0.82975         2.82177        -6.04466
   C        0.65234         2.11257        -4.86375
   S        1.60596         2.21604        -7.47615
   C        1.32994         3.74080        -8.27595
   C        0.68951         4.65805        -7.51248
  Br        1.91622         3.97888       -10.04115
   C       -1.05195         4.57712        -2.73882
   O       -1.49068         5.68886        -2.53982
   C       -0.92586         3.44936        -1.77813
   C       -1.11146         3.53518        -0.43539
   C       -1.75495         4.59956         0.29004
   C       -2.90407         5.24496        -0.19287
   C       -3.47177         6.25375         0.54804
   C       -2.91241         6.62289         1.78691
   C       -1.79120         5.97096         2.28612
   C       -1.23292         4.95421         1.54403
   C       -3.72104         7.66728         2.36978
   C       -4.80001         7.92915         1.50635
   C       -4.70735         7.07647         0.25883
   C       -4.51152         8.04113        -0.93448
   C       -4.30317         7.39238        -2.29580
   C       -5.95053         6.19109         0.07486
   C       -6.25488         5.34764         1.30789
   C       -5.73101         8.88686         1.82086
   C       -5.59406         9.62401         3.00979
   C       -4.50606         9.35134         3.85718
   C       -3.57876         8.37818         3.55541
   C       -6.49565        10.68288         3.37501
   C       -7.66919        10.97040         2.76528
   C       -8.51593        12.07041         3.08804
   C       -9.74083        12.23252         2.39236
   C      -10.62575        13.35284         2.61531
   N      -11.73671        13.48065         1.86632
   C      -12.01435        12.57464         0.96498
   C      -11.15525        11.44302         0.76860
   N      -10.06059        11.30818         1.47330
   C      -11.47579        10.46163        -0.20149
   N      -11.75030         9.68708        -0.99980
   C      -13.18637        12.73262         0.18306
   N      -14.13209        12.85073        -0.45224
   C      -10.32107        14.36042         3.54834
   C       -9.09925        14.20861         4.23183
   C       -8.21780        13.08227         4.02694
   N       -7.13586        13.16807         4.80598
   S       -7.22230        14.50077         5.69385
   N       -8.62296        15.05156         5.15211
   C      -11.11921        15.53859         3.76668
   S      -10.28911        17.05329         3.96003
   C      -11.77763        17.91755         4.14586
   C      -12.85294        17.05381         4.10135
   C      -12.48340        15.71185         3.86893
   C      -13.49997        14.61682         3.77416
   C      -14.83230        15.05417         4.38345
   N      -15.83241        13.98726         4.09028
   O      -15.62041        12.91185         4.58653
   O      -16.75273        14.27302         3.36831
   C      -15.24983        16.38518         3.78196
   N      -16.60350        16.79460         4.25492
   O      -17.23941        17.50567         3.52665
   O      -16.91729        16.44305         5.36607
   C      -14.28417        17.47110         4.26822
   C      -11.74057        19.36163         4.28491
   C      -12.64807        20.04988         5.10043
   C      -12.57188        21.42051         5.19314
   C      -11.56821        22.12536         4.50716
   C      -10.65885        21.45160         3.70549
   C      -10.75436        20.07954         3.59899
   C      -11.66312        23.52673         4.85827
   C      -12.71802        23.68561         5.76953
   C      -13.42473        22.36726         6.00703
   C      -14.85266        22.50737         5.42761
   C      -15.66656        21.22318         5.34263
   C      -13.45345        21.98651         7.49474
   C      -12.05925        21.94581         8.11010
   C      -13.00668        24.92460         6.28986
   C      -12.24138        26.03602         5.91341
   C      -11.19632        25.85991         5.00079
   C      -10.90124        24.61927         4.47159
   C      -12.57070        27.33080         6.49323
   C      -11.98001        28.49367         6.24123
   H       -0.59903         5.82206        -5.24842
   H        1.01170         1.10066        -4.77917
   H        0.44033         5.64849        -7.84695
   H       -0.69253         2.75062         0.18446
   H       -3.35228         4.90735        -1.11244
   H       -1.37570         6.24432         3.24417
   H       -0.36229         4.43180         1.91336
   H       -3.64910         8.67530        -0.71307
   H       -5.39225         8.68641        -0.98015
   H       -3.37106         6.83742        -2.32598
   H       -4.25256         8.17134        -3.05387
   H       -5.12662         6.73086        -2.55199
   H       -5.79192         5.52897        -0.77668
   H       -6.80719         6.82976        -0.14924
   H       -5.41766         4.69380         1.54354
   H       -7.13241         4.73061         1.12996
   H       -6.44965         5.97958         2.17168
   H       -6.55348         9.08872         1.15284
   H       -4.40559         9.92298         4.76848
   H       -2.75180         8.18094         4.22080
   H       -6.18786        11.30064         4.20757
   H       -8.04426        10.34889         1.96517
   H      -13.13973        13.71600         4.27504
   H      -13.65354        14.36867         2.71937
   H      -14.75805        15.12274         5.47426
   H      -15.28611        16.34173         2.68986
   H      -14.48763        17.64662         5.33094
   H      -14.46638        18.40357         3.72907
   H      -13.36037        19.50238         5.69375
   H       -9.88357        21.98760         3.17956
   H      -10.05746        19.53846         2.97580
   H      -14.76728        22.93228         4.42400
   H      -15.38905        23.23037         6.04570
   H      -15.22106        20.53224         4.63255
   H      -16.67158        21.45423         4.99745
   H      -15.74876        20.73628         6.31074
   H      -13.92195        21.00788         7.60759
   H      -14.06587        22.71396         8.03119
   H      -11.43559        21.21424         7.60059
   H      -12.12091        21.67388         9.16135
   H      -11.57719        22.91785         8.03334
   H      -13.81688        25.05297         6.99391
   H      -10.60289        26.71018         4.70349
   H      -10.08913        24.50365         3.76918
   H      -13.39093        27.30775         7.20102
   H      -11.16073        28.59739         5.55088
   H      -12.30123        29.39907         6.72676
*
