# ORCA input file
# SCF done       -191.154564621123          0.000864752406
! CAM-B3LYP def2-SVP def2/J RIJCOSX Grid4 TightSCF
%maxcore 5000
%tddft
    Mode sTDDFT
    Ethresh 5.0
    maxcore 5000
end

%pal
  nprocs 6
  end
* xyz 0 1
   C      -13.28119         1.39865        -1.36538
   C      -13.32897         0.35412        -2.25195
   C      -12.25522        -0.09662        -3.04737
   N      -11.42654        -0.52516        -3.71784
   C      -14.47563        -0.43537        -2.48376
   N      -15.37153        -1.11146        -2.72374
   C      -14.37333         1.81924        -0.49645
   C      -13.92015         2.88180         0.32381
   C      -14.72014         3.49346         1.25728
   C      -16.03428         3.03253         1.39102
   C      -16.48073         1.97228         0.56606
   C      -15.67053         1.35503        -0.37875
   S      -18.13768         1.56388         0.89127
   C      -18.20729         2.80383         2.11465
   C      -17.05011         3.49029         2.27309
  Br      -19.80047         3.07744         3.06405
   C      -12.52054         3.19120        -0.01011
   O      -11.84581         4.09794         0.44427
   C      -12.13580         2.24236        -1.06661
   C      -10.96633         2.24561        -1.77896
   N       -9.80315         2.87473        -1.53123
   C       -9.24719         3.32087        -0.36826
   S       -9.73834         2.78957         1.19599
   C       -8.37604         3.59682         1.89139
   N       -8.23420         3.53667         3.28424
   O       -7.29158         4.11660         3.78616
   O       -9.07574         2.89528         3.88889
   C       -7.59048         4.24674         0.97527
   C       -8.07911         4.10389        -0.33311
   C       -7.50800         4.67287        -1.51849
   C       -6.22332         5.04397        -1.68410
   C       -5.73058         5.46613        -2.95144
   S       -6.82522         5.79349        -4.27761
   C       -5.50327         6.00815        -5.40097
   C       -4.30008         5.85323        -4.77003
   C       -4.42951         5.56792        -3.38575
   S       -2.94748         5.31803        -2.50223
   C       -1.85947         5.46928        -3.90113
   O       -0.68384         5.29851        -3.83749
   S       -2.68487         5.87925        -5.43278
   N       -5.74967         6.35234        -6.71704
   C       -6.95555         6.06394        -7.29646
   S       -7.84732         7.28492        -8.13838
   C       -9.11369         6.13495        -8.43009
   N      -10.22527         6.56686        -9.17607
   O      -11.11555         5.76586        -9.37166
   O      -10.20025         7.71860        -9.56679
   C       -8.86026         4.89689        -7.91443
   C       -7.60595         4.82215        -7.26843
   C       -6.95244         3.62273        -6.83264
   C       -7.41290         2.36534        -7.02783
   C       -6.57791         1.21548        -6.93665
   C       -5.42228         1.03709        -6.24388
   C       -4.86926         1.66048        -5.06765
   C       -5.57058         2.15333        -3.99393
   C       -6.95568         2.33940        -3.92210
   N       -8.07166         2.54042        -3.72575
   C       -4.96709         2.39620        -2.74201
   N       -4.52867         2.57099        -1.69563
   C       -3.43678         1.41052        -5.07117
   C       -3.13971         0.46447        -6.08558
   C       -4.39262         0.08196        -6.76692
   O       -4.56239        -0.76683        -7.60593
   C       -1.85688         0.04643        -6.34242
   C       -0.82335         0.59980        -5.57600
   C       -1.13147         1.55116        -4.56971
   C       -2.43117         1.95849        -4.29916
   S        0.29123         2.11819        -3.75780
   C        1.27208         1.07889        -4.75384
   C        0.57079         0.34641        -5.65533
  Br        3.12936         1.05702        -4.51859
   H      -14.34367         4.29902         1.86776
   H      -16.05942         0.55338        -0.98379
   H      -16.91733         4.28671         2.98230
   H      -10.94260         1.70036        -2.71465
   H       -9.16278         2.88556        -2.33899
   H       -6.72350         4.81752         1.25133
   H       -8.17440         4.77120        -2.36737
   H       -5.49340         4.94403        -0.89494
   H       -5.23996         7.14808        -7.08147
   H       -9.55022         4.08058        -8.02225
   H       -5.94316         3.75246        -6.46318
   H       -8.39454         2.20921        -7.44947
   H       -6.81114         0.41903        -7.63805
   H       -1.65180        -0.68106        -7.11183
   H       -2.62441         2.67873        -3.52139
   H        1.02010        -0.34197        -6.34744
*
