# ORCA input file
# SCF done       -207.719556354696          0.000897465081
! CAM-B3LYP def2-SVP def2/J RIJCOSX Grid4 TightSCF
%maxcore 5000
%tddft
    Mode sTDDFT
    Ethresh 5.0
    maxcore 5000
end

%pal
  nprocs 6
  end
* xyz 0 1
   C        0.30905         4.52472        -6.37986
   C        0.88268         3.66130        -5.48052
   C        2.07691         2.95135        -5.72001
   N        3.04333         2.34563        -5.85479
   C        0.36415         3.33114        -4.21100
   N        0.01161         2.98927        -3.17217
   C        0.80462         4.78912        -7.72418
   C       -0.12539         5.62115        -8.39060
   C        0.05609         6.05162        -9.68197
   C        1.21389         5.63952       -10.35013
   C        2.14020         4.81018        -9.67515
   C        1.95617         4.37543        -8.36866
   S        3.50410         4.42441       -10.68162
   C        2.81853         5.36834       -11.97757
   C        1.63099         5.94362       -11.67521
  Br        3.73683         5.50566       -13.60775
   C       -1.25536         5.92936        -7.48750
   O       -2.20317         6.63232        -7.76442
   C       -0.92639         5.26884        -6.20043
   C       -1.52397         5.47080        -4.98925
   C       -2.76428         6.09946        -4.65626
   C       -2.88676         6.63510        -3.35619
   C       -4.05120         7.24572        -2.97850
   C       -5.14375         7.31103        -3.86653
   C       -5.05063         6.74764        -5.13448
   C       -3.86954         6.15385        -5.52196
   C       -6.23458         7.97492        -3.20044
   C       -5.82506         8.32665        -1.89811
   C       -4.37878         7.94543        -1.67650
   C       -4.19699         7.02614        -0.46009
   C       -4.99278         5.73221        -0.58768
   C       -3.46382         9.19104        -1.59430
   C       -3.75105        10.15542        -0.45113
   C       -6.70503         8.91462        -1.02648
   C       -8.01123         9.22333        -1.45034
   C       -8.39415         8.87758        -2.75915
   C       -7.52844         8.25240        -3.62764
   C       -8.95439         9.90294        -0.61181
   C       -8.72724        10.38688         0.63821
   C       -9.67469        11.12455         1.37090
   C       -9.44049        11.67327         2.60426
   C      -10.32056        12.50056         3.34828
   C       -9.80678        12.95819         4.52009
   C       -8.49289        12.50543         4.79126
   S       -7.93357        11.47095         3.48888
   C       -7.71239        12.80130         5.88422
   C       -8.01980        13.70056         6.94085
   C       -7.04345        13.82125         7.86939
   C       -5.89316        13.00694         7.63171
   S       -6.13397        12.08689         6.13918
   C       -4.78715        12.93599         8.40197
   C       -3.64268        12.03502         8.09716
   C       -3.97626        10.55037         8.21615
   C       -4.31970        10.32263         9.71976
   C       -4.49342        11.56969        10.59409
   C       -5.66851        11.76631        11.19448
   O       -3.49479        12.43640        11.00405
   C       -2.47712        13.00976        10.15429
   C       -2.37402        12.05139         8.99514
   C       -1.26768        11.75385         8.03380
   C       -1.50805        10.61877         7.38351
   C       -2.73443         9.76402         7.67035
   C       -3.12559         8.99259         6.40879
   C       -1.15936        13.12937        10.92615
   C       -1.30970        13.79996        12.29275
   C       -1.72983        12.80572        13.38956
   C       -0.61588        11.88992        13.75577
   C       -0.47512        10.62153        13.33514
   C        0.58197         9.71179        13.67369
   C        0.47456         8.48905        13.11459
   C       -0.66628         8.32440        12.27439
   S       -1.61229         9.80336        12.24864
   C       -1.01673         7.21359        11.55894
   C       -0.34114         5.95909        11.51016
   C       -0.92047         5.04039        10.71018
   C       -2.11219         5.48997        10.04634
   S       -2.43833         7.16276        10.52395
   C       -2.88886         4.80805         9.19662
   H       -0.67258         6.68612       -10.16168
   H        2.69467         3.74962        -7.89658
   H        1.07094         6.55812       -12.35614
   H       -0.95967         5.14380        -4.12246
   H       -2.04664         6.57172        -2.67919
   H       -5.89341         6.77156        -5.80851
   H       -3.80059         5.69952        -6.49532
   H       -4.51928         7.55412         0.43820
   H       -3.13629         6.79122        -0.35002
   H       -6.05450         5.94478        -0.69429
   H       -4.85181         5.11725         0.29806
   H       -4.66813         5.16318        -1.45596
   H       -3.55208         9.73356        -2.53951
   H       -2.43305         8.83841        -1.51267
   H       -4.73356        10.60604        -0.56028
   H       -3.01211        10.95403        -0.46191
   H       -3.69353         9.65822         0.51343
   H       -6.40779         9.13452        -0.01415
   H       -9.39924         9.10960        -3.08219
   H       -7.84744         7.98270        -4.62343
   H       -9.93185        10.07310        -1.04757
   H       -7.76787        10.24290         1.11684
   H      -10.64346        11.30520         0.92323
   H      -11.30326        12.73826         2.98017
   H      -10.33516        13.60086         5.20139
   H       -8.94966        14.24012         6.96543
   H       -7.09543        14.45695         8.73541
   H       -4.74778        13.61769         9.23531
   H       -3.35413        12.25178         7.05913
   H       -4.84414        10.28183         7.61179
   H       -3.58117         9.67320        10.19622
   H       -5.27027         9.79247         9.77899
   H       -6.49640        11.09726        11.05971
   H       -5.81414        12.59891        11.85992
   H       -2.80412        14.02271         9.87404
   H       -2.36537        11.12261         9.57168
   H       -0.41294        12.38820         7.87123
   H       -0.83742        10.23908         6.62792
   H       -2.43603         9.02631         8.42692
   H       -3.44957         9.67987         5.62994
   H       -3.93972         8.30440         6.62244
   H       -2.28244         8.41641         6.03481
   H       -0.72162        12.13913        11.05304
   H       -0.48334        13.71638        10.30083
   H       -2.06005        14.58904        12.22637
   H       -0.36032        14.25981        12.57743
   H       -2.58765        12.23680        13.03253
   H       -2.02542        13.37393        14.27515
   H        0.15735        12.29354        14.39701
   H        1.37668        10.01782        14.33141
   H        1.17654         7.68864        13.26779
   H        0.55466         5.78658        12.08039
   H       -0.55360         4.04158        10.55412
   H       -2.65357         3.79235         8.93448
   H       -3.76372         5.24610         8.75260
*
