# ORCA input file
# SCF done       -180.237571737007          0.000299629788
! CAM-B3LYP def2-SVP def2/J RIJCOSX Grid4 TightSCF
%maxcore 5000
%tddft
    Mode sTDDFT
    Ethresh 5.0
    maxcore 5000
end

%pal
  nprocs 6
  end
* xyz 0 1
   C      -10.47292         3.37743        -4.91497
   C      -11.54711         3.08532        -4.10280
   C      -12.83406         3.62702        -4.27191
   N      -13.90463         4.04003        -4.34542
   C      -11.52166         2.24128        -2.97837
   N      -11.61062         1.56946        -2.04920
   C      -10.51839         4.27229        -6.07100
   C       -9.20716         4.40850        -6.58555
   C       -8.91910         5.17421        -7.68671
   C       -9.98009         5.83395        -8.31902
   C      -11.28556         5.69075        -7.79911
   C      -11.57575         4.91958        -6.67865
   S      -12.44907         6.57828        -8.73924
   C      -11.17913         7.11868        -9.80474
   C       -9.94846         6.66295        -9.47479
  Br      -11.59991         8.23203       -11.25650
   C       -8.28068         3.59020        -5.76962
   O       -7.07619         3.50593        -5.92882
   C       -9.12126         2.92176        -4.76635
   C       -8.66021         1.99084        -3.84956
   C       -7.33331         1.63309        -3.68208
   C       -6.91400         0.68934        -2.75897
   C       -5.57873         0.34999        -2.45773
   C       -5.44989        -0.59578        -1.48046
   C       -6.68137        -1.05601        -0.97737
   S       -8.01243        -0.24402        -1.77655
   C       -6.89597        -2.02451        -0.01266
   C       -5.93136        -2.77821         0.69484
   C       -6.45980        -3.69301         1.55207
   C       -7.87543        -3.71398         1.56754
   S       -8.50355        -2.48819         0.46134
   C       -8.67820        -4.56364         2.26999
   N      -10.02660        -4.50426         2.24513
   C      -10.90990        -5.40297         2.82533
   C      -12.12641        -5.67564         2.25974
   S      -12.99679        -6.88317         3.10289
   C      -11.74032        -7.01781         4.26455
   C      -10.69464        -6.17153         4.02144
   N       -9.58270        -6.09031         4.84381
   C       -8.97579        -4.90425         5.19326
   C       -7.97288        -4.81706         6.08225
   C       -7.28113        -3.60463         6.40511
   S       -5.82750        -3.70651         7.36056
   C       -5.57672        -2.00791         7.25316
   C       -6.55346        -1.39417         6.54434
   C       -7.53960        -2.29290         6.05765
   N       -8.69536        -1.87908         5.36730
   C       -9.91254        -1.93530         6.15821
   C      -10.03156        -0.77267         7.14497
   C       -8.56696        -0.98808         4.31015
   C       -9.63694        -0.19590         3.87260
   C       -9.46139         0.65479         2.80727
   C       -8.22664         0.75609         2.15022
   C       -7.17187        -0.04527         2.55746
   C       -7.35259        -0.91707         3.61334
   C       -8.34301         1.75062         1.10251
   C       -9.65950         2.23824         1.09627
   C      -10.46803         1.60643         2.20536
   C      -11.71262         0.87446         1.67561
   C      -11.36936        -0.25008         0.70910
   C      -10.90418         2.67027         3.23302
   C       -9.73237         3.43694         3.83434
   C      -10.04892         3.18856         0.18477
   C       -9.12533         3.68557        -0.74397
   C       -7.81160         3.21119        -0.70845
   C       -7.41463         2.25016         0.20232
   C       -9.57824         4.68518        -1.70040
   C       -8.86887         5.24501        -2.67447
   H       -7.90899         5.25793        -8.05628
   H      -12.58984         4.83893        -6.32456
   H       -9.05426         6.89715       -10.02325
   H       -9.38325         1.50660        -3.20463
   H       -6.57780         2.12182        -4.28003
   H       -4.75443         0.82046        -2.96372
   H       -4.50750        -0.96710        -1.11857
   H       -4.87759        -2.62669         0.54663
   H       -5.88307        -4.35544         2.17277
   H       -8.22783        -5.32887         2.88252
   H      -10.43203        -3.85916         1.57680
   H      -12.53608        -5.24017         1.37054
   H      -11.83740        -7.71106         5.07551
   H       -9.44717        -6.86705         5.47588
   H       -9.32849        -4.03301         4.66889
   H       -7.61653        -5.70976         6.57934
   H       -4.72558        -1.57188         7.73618
   H       -6.59274        -0.33416         6.36578
   H       -9.89855        -2.87634         6.71503
   H      -10.77453        -1.95876         5.48667
   H       -9.19915        -0.79279         7.84513
   H      -10.95934        -0.85273         7.70555
   H      -10.01764         0.18081         6.62280
   H      -10.59652        -0.23124         4.36246
   H       -6.21455         0.00250         2.05834
   H       -6.53740        -1.55833         3.91492
   H      -12.35247         1.59717         1.16730
   H      -12.27053         0.47155         2.52556
   H      -10.86034         0.14502        -0.16465
   H      -12.27800        -0.74653         0.37669
   H      -10.72296        -0.98258         1.18843
   H      -11.46191         2.17722         4.03318
   H      -11.57988         3.37193         2.73999
   H       -9.05216         2.76001         4.34724
   H      -10.09274         4.17265         4.55036
   H       -9.17534         3.95569         3.05761
   H      -11.06431         3.55818         0.17278
   H       -7.08726         3.60119        -1.40712
   H       -6.39220         1.89789         0.21150
   H      -10.61579         4.97754        -1.58098
   H       -7.83621         5.00549        -2.86109
   H       -9.30506         5.97690        -3.33419
*
