# ORCA input file
# SCF done       -178.790870080113          0.000616660315
! CAM-B3LYP def2-SVP def2/J RIJCOSX Grid4 TightSCF
%maxcore 5000
%tddft
    Mode sTDDFT
    Ethresh 5.0
    maxcore 5000
end

%pal
  nprocs 6
  end
* xyz 0 1
   C        5.67829        -1.47658        -0.80067
   C        6.10170        -0.30462        -1.36322
   F        7.40549         0.00152        -1.38013
   C        5.17633         0.59370        -1.93018
   F        5.61859         1.73547        -2.47476
   C        3.83933         0.30818        -1.92665
   C        3.37233        -0.89002        -1.35333
   C        4.30724        -1.79966        -0.78023
   C        3.86134        -3.00894        -0.19698
   C        2.52325        -3.29675        -0.18402
   C        1.59468        -2.37946        -0.75736
   C        1.99552        -1.20731        -1.33106
   C        0.23842        -2.91882        -0.59819
   O       -0.81848        -2.41088        -0.96274
   C        0.38644        -4.19928         0.09748
   C        1.78688        -4.44435         0.34528
   C        2.34199        -5.54008         0.95484
   C        3.72453        -5.71407         1.16615
   N        4.83805        -5.90851         1.36673
   C        1.59720        -6.63284         1.44267
   N        1.02751        -7.54219         1.85055
   C       -0.70803        -4.96062         0.43532
   N       -1.93869        -4.54263         0.12152
   C       -3.10891        -5.16200         0.41400
   S       -3.14445        -6.67001         1.27480
   C       -4.87666        -6.63840         1.20497
   N       -5.56528        -7.71126         1.79217
   O       -6.77956        -7.69339         1.75579
   O       -4.88214        -8.58412         2.29757
   C       -5.38650        -5.54345         0.56464
   C       -4.38239        -4.67048         0.09404
   C       -4.61536        -3.44822        -0.62418
   C       -5.83754        -2.90151        -0.78715
   C       -6.10393        -1.70919        -1.51813
   C       -7.32589        -1.06534        -1.67388
   C       -8.53913        -1.60720        -1.04822
   O       -8.69750        -2.76439        -0.73218
   O       -9.50320        -0.70081        -0.80938
   C       -7.23508         0.11555        -2.49240
   C       -5.93695         0.32152        -2.90852
   S       -4.83681        -0.84713        -2.33705
   C       -8.34685         0.93445        -2.85114
   C       -8.41627         1.94292        -3.76652
   C       -9.60371         2.68278        -4.03815
   C       -9.48349         3.61244        -5.01950
   C       -8.19362         3.67887        -5.59632
   S       -7.13133         2.51560        -4.82377
   C       -7.77429         4.49897        -6.62209
   C       -8.54363         5.46966        -7.30848
   C       -7.87500         6.11468        -8.30066
   C       -6.52815         5.70360        -8.46731
   S       -6.15171         4.45948        -7.26794
   C       -5.55250         6.12375        -9.33024
   C       -5.65425         7.01455       -10.42664
   C       -4.54828         7.55526       -11.08960
   C       -5.00141         8.38657       -12.14361
   C       -4.32741         9.14886       -13.07257
   C       -5.09164         9.86511       -14.00708
   C       -4.72791        10.70974       -15.04754
   C       -5.90560        11.18386       -15.70404
   C       -7.00216        10.62956       -15.06752
   C       -6.54127         9.79779       -13.99971
   C       -7.21555         9.03858       -13.08093
   C       -6.45048         8.32513       -12.13410
   C       -6.83011         7.49422       -11.09593
   C       -5.88035        12.08628       -16.83126
   C       -6.94905        12.55575       -17.46914
   H        6.40010        -2.15348        -0.37093
   H        3.14371         1.00672        -2.36466
   H        4.59357        -3.67594         0.22815
   H        1.27271        -0.52967        -1.75930
   H       -0.62046        -5.90140         0.96309
   H       -1.95453        -3.63420        -0.37835
   H       -6.44303        -5.39550         0.43555
   H       -3.75647        -2.94971        -1.05540
   H       -6.70841        -3.37201        -0.35761
   H      -10.25262        -1.14439        -0.38063
   H       -5.56492         1.12461        -3.51123
   H       -9.27156         0.71932        -2.33922
   H      -10.50940         2.49026        -3.49073
   H      -10.28493         4.24852        -5.34976
   H       -9.56737         5.66826        -7.04603
   H       -8.30597         6.90502        -8.88581
   H       -4.55943         5.72714        -9.15674
   H       -3.51983         7.38168       -10.83143
   H       -3.24777         9.19769       -13.08938
   H       -3.72337        10.97498       -15.32680
   H       -8.03518        10.78363       -15.31700
   H       -8.29529         8.98345       -13.06740
   H       -7.84111         7.21164       -10.87073
   H       -4.89133        12.38579       -17.15559
   H       -7.95086        12.28766       -17.18085
   H       -6.85691        13.22879       -18.30370
*
