# ORCA input file
# SCF done       -188.940697569914          0.000761550298
! CAM-B3LYP def2-SVP def2/J RIJCOSX Grid4 TightSCF
%maxcore 5000
%tddft
    Mode sTDDFT
    Ethresh 5.0
    maxcore 5000
end

%pal
  nprocs 6
  end
* xyz 0 1
   C      -14.92115         4.21956        -0.05362
   C      -16.21726         4.33813         0.36293
   F      -17.09953         5.03718        -0.36717
   C      -16.64391         3.73128         1.56049
   F      -17.92158         3.86619         1.94671
   C      -15.76840         3.01116         2.32402
   C      -14.42654         2.86861         1.92025
   C      -13.99282         3.48465         0.71047
   C      -12.65239         3.35384         0.28208
   C      -11.77562         2.62470         1.03888
   C      -12.21777         2.00383         2.24372
   C      -13.50522         2.11803         2.68420
   C      -11.10150         1.24916         2.82688
   O      -11.08253         0.60549         3.86754
   C       -9.97032         1.42606         1.90562
   C      -10.37502         2.28559         0.81459
   C       -9.61905         2.67212        -0.25954
   C       -8.30913         2.22003        -0.50586
   N       -7.25151         1.85353        -0.76773
   C      -10.05305         3.54125        -1.28224
   N      -10.30488         4.26961        -2.13316
   C       -8.78374         0.77801         2.09965
   N       -8.59213        -0.04876         3.14675
   C       -7.58105        -0.96175         3.23051
   S       -6.92440        -1.41506         4.76686
   C       -5.77296        -2.42839         3.95503
   N       -4.87673        -3.16500         4.74391
   O       -4.07193        -3.87342         4.17084
   O       -4.97826        -3.03855         5.95088
   C       -5.89080        -2.41375         2.59055
   C       -6.94093        -1.58628         2.15208
   C       -7.43240        -1.44564         0.80690
   C       -6.74856        -1.61879        -0.33801
   C       -7.30003        -1.34685        -1.62733
   C       -8.52935        -0.79438        -1.97215
   C       -9.58865        -0.56251        -1.08716
   N      -10.48666        -0.40042        -0.38789
   C       -8.64597        -0.54855        -3.36726
   C       -7.52201        -0.98978        -4.05680
   S       -6.29755        -1.62302        -3.03076
   S       -7.60771        -0.82014        -5.77911
   C       -9.17687        -0.10430        -5.57462
   C       -9.60565         0.01490        -4.25837
   C      -10.85175         0.69030        -4.18023
   C      -11.50842         1.08414        -3.01294
   N      -12.06542         1.46479        -2.08129
   C      -11.36384         1.02045        -5.44298
   S      -10.28994         0.51659        -6.73562
   C      -12.57981         1.67775        -5.67693
   C      -13.18620         1.89992        -6.88777
   C      -14.43086         2.55267        -7.08006
   C      -14.85849         2.57771        -8.37169
   C      -13.97996         1.94628        -9.27853
   S      -12.56175         1.35001        -8.42850
   C      -14.15263         1.73662       -10.63043
   C      -15.24051         2.14322       -11.43888
   C      -15.16973         1.72804       -12.73215
   C      -14.00668         0.97347       -13.04092
   S      -12.99433         0.84760       -11.58924
   C      -13.54891         0.38190       -14.18360
   N      -14.20772         0.18247       -15.35205
   C      -13.52282        -0.14134       -16.51591
   C      -12.17521        -0.03670       -16.71850
   S      -11.72079        -0.50461       -18.30523
   C      -13.35305        -0.85079       -18.72008
   C      -14.21226        -0.60469       -17.69044
   N      -15.57932        -0.82081       -17.66177
   C      -16.10675        -0.97687       -16.32856
   C      -15.65227         0.19029       -15.44455
   C      -16.43030        -0.70722       -18.74334
   C      -16.16383        -0.18363       -19.93360
   H      -14.60971         4.68760        -0.97419
   H      -16.11208         2.55034         3.23697
   H      -12.35537         3.81457        -0.64518
   H      -13.82065         1.63330         3.59581
   H       -7.94827         0.90522         1.42503
   H       -9.35853        -0.04092         3.83716
   H       -5.26679        -3.00646         1.94719
   H       -8.47010        -1.15549         0.74116
   H       -5.70885        -1.91400        -0.32408
   H      -13.10186         2.02165        -4.79303
   H      -14.96968         2.97301        -6.24969
   H      -15.78429         3.02084        -8.69244
   H      -16.04483         2.73690       -11.04326
   H      -15.89904         2.00081       -13.47310
   H      -12.53920        -0.00403       -14.16797
   H      -11.41993         0.31059       -16.04466
   H      -13.57838        -1.23751       -19.69127
   H      -15.74115        -1.91535       -15.88949
   H      -17.19606        -1.00766       -16.36368
   H      -16.06710         0.06875       -14.44359
   H      -16.00513         1.13458       -15.87758
   H      -17.41696        -1.10121       -18.53435
   H      -15.21326         0.24805       -20.18453
   H      -16.92034        -0.16954       -20.69517
*
