# ORCA input file
# SCF done       -178.052341731435          0.000926192092
! CAM-B3LYP def2-SVP def2/J RIJCOSX Grid4 TightSCF
%maxcore 5000
%tddft
    Mode sTDDFT
    Ethresh 5.0
    maxcore 5000
end

%pal
  nprocs 6
  end
* xyz 0 1
   C       13.82011       -17.72827        -9.31176
   C       13.84550       -16.75919        -8.38244
   C       14.78750       -16.58356        -7.31936
   C       14.54749       -15.50170        -6.53777
   C       13.40979       -14.74813        -6.91991
   S       12.64356       -15.46017        -8.31585
   C       12.92606       -13.59801        -6.31100
   C       13.45444       -12.93594        -5.18608
   C       12.75485       -11.81932        -4.81557
   C       11.64337       -11.53961        -5.62653
   S       11.51113       -12.75975        -6.88734
   C       10.69338       -10.52572        -5.63598
   C       10.47321        -9.40491        -4.83908
   C        9.39059        -8.53571        -5.23357
   C        9.08095        -7.31545        -4.55337
   N        8.07999        -6.54569        -4.97530
   C        7.36833        -6.92034        -6.02486
   C        7.66769        -8.13252        -6.69733
   N        8.66110        -8.89974        -6.29217
   C        6.90367        -8.53956        -7.81930
   N        6.26735        -8.84063        -8.72319
   C        6.30670        -6.09282        -6.46211
   N        5.44404        -5.43999        -6.83984
   C        9.82873        -6.86321        -3.40553
   C       10.85321        -7.75784        -2.97776
   C       11.17250        -8.98521        -3.66584
   N       12.15463        -9.63318        -3.05627
   S       12.64409        -8.80968        -1.75458
   N       11.61272        -7.57440        -1.91334
   C        9.50384        -5.64269        -2.84407
   C       10.04863        -4.91832        -1.78043
   C        9.57590        -3.65015        -1.41344
   C       10.25380        -3.06968        -0.36372
   C       11.27914        -3.87649         0.12410
   S       11.37610        -5.37685        -0.74820
   C       12.18055        -3.60828         1.17477
   C       12.28527        -2.46519         1.96485
   C       13.29700        -2.52331         2.90323
   C       14.02014        -3.71546         2.88494
   S       13.37683        -4.77337         1.63600
   C       15.08911        -4.24569         3.61606
   C       15.91926        -3.79632         4.63014
   C       15.97267        -2.51298         5.27591
   C       16.92930        -2.22262         6.31079
   N       16.95012        -1.01384         6.87679
   C       16.09489        -0.08941         6.48115
   C       15.15419        -0.37307         5.46203
   N       15.11940        -1.56895         4.89403
   C       14.22850         0.60347         5.02517
   N       13.47919         1.39944         4.67939
   C       16.13544         1.18778         7.09237
   N       16.14503         2.23073         7.56691
   C       17.89288        -3.17930         6.78541
   C       17.84224        -4.44789         6.14241
   C       16.89432        -4.73994         5.10558
   N       17.02546        -5.97616         4.64867
   S       18.22417        -6.72011         5.43562
   N       18.62614        -5.48274         6.39934
   C       18.76433        -2.79700         7.79841
   C       19.78631        -3.46799         8.45608
   C       20.54565        -2.85514         9.47700
   C       21.51592        -3.64772        10.02229
   C       21.56245        -4.93055         9.44684
   S       20.34384        -5.10218         8.20227
   C       22.42277        -5.97273         9.76129
   C       23.44824        -5.98201        10.73900
   C       24.13228        -7.15032        10.81950
   C       23.68870        -8.15346         9.89985
   S       22.34917        -7.50864         8.93653
   C       24.16714        -9.39839         9.74230
   H       14.56847       -18.50087        -9.31881
   H       13.05986       -17.76425       -10.07013
   H       15.60261       -17.27176        -7.18477
   H       15.15321       -15.21834        -5.69567
   H       14.33111       -13.28831        -4.67321
   H       13.00420       -11.19172        -3.98114
   H        9.97385       -10.60328        -6.44425
   H        8.67809        -5.14355        -3.33989
   H        8.75315        -3.18458        -1.92710
   H       10.02262        -2.10090         0.04090
   H       11.63539        -1.61707         1.84596
   H       13.52039        -1.73190         3.59162
   H       15.33630        -5.26171         3.32252
   H       18.61259        -1.77761         8.13610
   H       20.35356        -1.84121         9.78180
   H       22.18030        -3.33501        10.80757
   H       23.64638        -5.12140        11.35269
   H       24.94196        -7.34464        11.49979
   H       24.98238        -9.75371        10.34734
   H       23.75540       -10.07388         9.01520
*
