# ORCA input file
# SCF done       -235.113132420379          0.000962217763
! CAM-B3LYP def2-SVP def2/J RIJCOSX Grid4 TightSCF
%maxcore 5000
%tddft
    Mode sTDDFT
    Ethresh 5.0
    maxcore 5000
end

%pal
  nprocs 6
  end
* xyz 0 1
   C        1.28222         6.10658        -3.72151
   C        1.54705         7.06727        -2.78202
   C        1.57067         8.44867        -3.05813
   N        1.57668         9.58274        -3.23521
   C        1.92361         6.75100        -1.45982
   N        2.28325         6.50424        -0.39822
   C        1.20233         6.32076        -5.16070
   C        1.45875         5.08021        -5.81705
   C        1.50624         4.98787        -7.17842
   C        1.28620         6.14689        -7.95626
   C        1.01146         7.38503        -7.30572
   C        0.97430         7.45357        -5.89419
   C        0.78970         8.53206        -8.09457
   C        0.84086         8.46311        -9.46016
   C        1.11326         7.24450       -10.09975
   C        1.33090         6.11130        -9.36399
   C        1.63945         4.02091        -4.80929
   O        1.92375         2.85848        -4.98160
   C        1.33253         4.67429        -3.50246
   C        1.06758         3.91186        -2.41339
   C        0.38931         4.27155        -1.21787
   S       -0.82733         5.50974        -1.18793
   C       -1.17657         5.20994         0.48969
   C       -0.35433         4.21334         0.99475
   C        0.49091         3.65813         0.01856
   C        1.41363         2.52175         0.31308
   C        0.87531         1.67495         1.46977
   C       -0.34587         0.86674         1.04225
   F       -1.36184         1.59194         0.55442
   F       -0.02745        -0.01836         0.08573
   F       -0.85161         0.15843         2.06563
   C        0.56972         2.56591         2.68648
   C        1.82787         3.12131         3.14901
   N        2.83085         3.52795         3.51113
   C       -0.43299         3.69446         2.39027
   C       -2.19237         5.94869         1.17473
   N       -3.39379         6.30944         0.60951
   C       -3.91098         5.97707        -0.69694
   C       -3.73432         7.13048        -1.68082
   C       -4.20226         7.03962         1.50819
   O       -5.31903         7.43399         1.24213
   C       -3.39759         7.13853         2.69639
   C       -2.17614         6.45005         2.47405
   C       -1.37109         6.64109         3.65873
   O       -0.26602         6.23445         3.96642
   N       -2.15207         7.44303         4.51166
   C       -1.66092         7.75042         5.83439
   C       -2.39243         6.96040         6.91602
   C       -3.37115         7.74351         3.94721
   C       -4.46691         8.50321         4.43793
   C       -4.52700         9.30320         5.53065
   C       -5.66099        10.01818         6.00285
   S       -5.51751        10.72758         7.58151
   C       -7.18291        11.22730         7.58021
   C       -7.78928        10.90612         6.37146
   C       -6.92606        10.25502         5.47381
   C       -7.32707         9.92316         4.06899
   C       -8.52642        10.75605         3.60554
   C       -8.09989        12.18058         3.26215
   F       -7.38569        12.79395         4.21463
   F       -7.34270        12.20157         2.15595
   F       -9.15774        12.97269         3.01639
   C       -9.63832        10.73977         4.66638
   C      -10.06889         9.36770         4.85077
   N      -10.40466         8.28462         4.98225
   C       -9.17632        11.32640         6.00761
   C       -7.61042        11.96332         8.72086
   C       -8.77705        11.88763         9.41755
   C       -9.12479        12.71913        10.55941
   C       -8.59104        13.94494        10.85326
   C       -8.98231        14.72970        11.95841
   N       -9.25561        15.40528        12.84521
   C       -7.61743        14.60130        10.06991
   N       -6.84475        15.19823         9.46582
   C      -10.20222        12.05486        11.27863
   C      -10.58675        10.89426        10.54689
   C       -9.75327        10.77319         9.34137
   O       -9.80954         9.90334         8.49579
   C      -11.57693        10.06174        10.98336
   C      -12.23782        10.35638        12.19701
   C      -11.85550        11.51263        12.93742
   C      -10.82815        12.35771        12.45875
   C      -12.51644        11.79108        14.15091
   C      -13.50727        10.96809        14.61317
   C      -13.88260         9.83006        13.88385
   C      -13.26246         9.53144        12.70075
   H        1.71212         4.04219        -7.65739
   H        0.75841         8.40072        -5.42451
   H        0.58455         9.46868        -7.59737
   H        0.67292         9.34802       -10.05545
   H        1.14979         7.20818       -11.17818
   H        1.54099         5.17034        -9.85102
   H        1.34239         2.86498        -2.50910
   H        2.39331         2.91721         0.59869
   H        1.55385         1.89955        -0.57393
   H        1.62501         0.92574         1.75207
   H        0.17573         1.94843         3.50339
   H       -0.22706         4.51627         3.08608
   H       -1.45260         3.34938         2.58511
   H       -4.98056         5.78454        -0.56677
   H       -3.42804         5.06860        -1.06097
   H       -4.28183         7.99951        -1.32548
   H       -4.12313         6.84520        -2.65395
   H       -2.68510         7.39649        -1.78640
   H       -1.72095         8.82665         6.01411
   H       -0.60450         7.46449         5.82578
   H       -3.45998         7.16739         6.90492
   H       -1.99496         7.22309         7.89230
   H       -2.24616         5.89467         6.75812
   H       -5.33381         8.38988         3.80598
   H       -3.65690         9.42108         6.15885
   H       -7.60133         8.86571         4.00262
   H       -6.48872        10.09700         3.39002
   H       -8.91117        10.33879         2.66737
   H      -10.50528        11.30787         4.30688
   H       -9.86601        10.98493         6.78179
   H       -9.22389        12.41898         5.97466
   H       -6.83773        12.60720         9.12889
   H      -11.84997         9.18759        10.41100
   H      -10.55421        13.22093        13.04453
   H      -12.22413        12.66866        14.70863
   H      -14.00680        11.18945        15.54433
   H      -14.66547         9.19106        14.26395
   H      -13.54736         8.65677        12.13462
*
