# ORCA input file
# SCF done       -214.680632859991          0.000690315307
! CAM-B3LYP def2-SVP def2/J RIJCOSX Grid4 TightSCF
%maxcore 5000
%tddft
    Mode sTDDFT
    Ethresh 5.0
    maxcore 5000
end

%pal
  nprocs 6
  end
* xyz 0 1
   C        5.10654         3.41180        -8.34513
   C        5.15357         2.10992        -8.76102
   C        6.34012         1.35362        -8.86478
   N        7.27557         0.69754        -8.96908
   C        4.00553         1.35170        -9.07585
   N        3.09644         0.68553        -9.29175
   C        6.22093         4.21265        -7.86041
   C        5.71498         5.44046        -7.33812
   C        6.54028         6.38457        -6.79632
   C        7.93152         6.14308        -6.75583
   C        8.44487         4.92293        -7.28505
   C        7.56774         3.96214        -7.83700
   C        9.83585         4.69711        -7.24571
   C       10.68110         5.62958        -6.70849
   C       10.17497         6.82955        -6.18648
   C        8.82982         7.08082        -6.20926
   C        4.25655         5.48697        -7.51460
   O        3.49161         6.37643        -7.21523
   C        3.90524         4.21784        -8.21264
   C        2.68427         4.00970        -8.75327
   C        1.55774         4.87208        -8.53700
   C        0.89143         5.56011        -9.52474
   N        1.23605         5.52974       -10.88693
   O        0.51709         6.11742       -11.67157
   O        2.23893         4.90285       -11.19800
   C       -0.15294         6.36706        -8.94129
   C       -0.10600         6.20810        -7.59793
   C        0.94139         5.27409        -7.26398
   C        1.25934         4.73784        -6.03705
   C        1.91479         3.48274        -5.81903
   C        1.95421         3.23768        -4.48596
   C        1.35029         4.33907        -3.78308
   N        1.41947         4.38182        -2.38033
   O        0.85783         5.27962        -1.76855
   O        2.06405         3.50366        -1.83206
   C        0.90727         5.28769        -4.70954
   C        0.36894         6.58665        -4.56638
   C       -0.38773         7.03997        -3.52174
   C       -0.90793         8.34750        -3.46085
   N       -1.63561         8.81627        -2.39370
   C       -1.91259         8.11392        -1.16051
   C       -0.68133         8.00373        -0.26630
   C       -2.06878        10.13515        -2.58658
   O       -2.73115        10.75704        -1.78128
   C       -1.56440        10.49068        -3.89989
   C       -0.85499         9.38421        -4.40692
   C       -0.37865         9.73115        -5.73130
   O        0.26067         9.11130        -6.55454
   N       -0.83188        11.04940        -5.93008
   C       -0.59249        11.73979        -7.17544
   C       -1.81094        11.68691        -8.09323
   C       -1.54612        11.51483        -4.85647
   C       -2.13370        12.79996        -4.79412
   C       -2.86119        13.22044        -3.72591
   C       -3.46428        14.50246        -3.68703
   S       -4.42948        15.04499        -2.32295
   C       -4.64872        16.53261        -3.23886
   N       -4.03150        16.50116        -4.39183
   N       -3.39151        15.40418        -4.63536
   C       -5.42644        17.61314        -2.74669
   C       -5.61355        18.76938        -3.43084
   C       -6.41603        19.80949        -2.89568
   C       -6.66399        21.00386        -3.50226
   C       -7.49313        22.08427        -2.99044
   C       -8.17708        22.10522        -1.80288
   C       -8.97045        23.18771        -1.36467
   N       -9.63236        24.02689        -0.94634
   C       -8.20168        21.07171        -0.84261
   N       -8.27712        20.28408        -0.01019
   C       -7.47663        23.16109        -3.97323
   C       -6.65698        22.76891        -5.07017
   C       -6.11904        21.42042        -4.82777
   O       -5.38615        20.78941        -5.55673
   C       -6.45361        23.58289        -6.14749
   C       -7.07354        24.85163        -6.17981
   C       -7.89646        25.25192        -5.08715
   C       -8.08749        24.38827        -3.98498
   C       -8.51208        26.51979        -5.12922
   C       -8.32480        27.35325        -6.19805
   C       -7.51397        26.95831        -7.27297
   C       -6.90165        25.73434        -7.26419
   H        6.13584         7.30643        -6.40540
   H        7.98401         3.05069        -8.23653
   H       10.22036         3.77137        -7.64770
   H       11.74490         5.44760        -6.68284
   H       10.85648         7.55406        -5.76667
   H        8.43479         8.00312        -5.80928
   H        2.53321         3.20155        -9.46076
   H       -0.82344         6.97651        -9.51571
   H       -0.79563         6.62495        -6.89245
   H        2.22837         2.81323        -6.59609
   H        2.35792         2.37587        -3.98872
   H        0.57172         7.26164        -5.38811
   H       -0.62665         6.37859        -2.70525
   H       -2.31325         7.12214        -1.38650
   H       -2.68649         8.70009        -0.65672
   H        0.07619         7.36532        -0.71273
   H       -0.96972         7.57509         0.68909
   H       -0.25750         8.98947        -0.08960
   H        0.24738        11.22521        -7.65034
   H       -0.30496        12.77370        -6.96943
   H       -2.06315        10.65344        -8.31779
   H       -1.58928        12.19929        -9.02484
   H       -2.67140        12.16296        -7.62860
   H       -2.00774        13.47424        -5.62845
   H       -3.01155        12.57721        -2.86951
   H       -5.88298        17.47282        -1.77524
   H       -5.15059        18.90204        -4.39742
   H       -6.86085        19.61385        -1.92788
   H       -5.82675        23.26046        -6.96558
   H       -8.71583        24.72277        -3.17512
   H       -9.13523        26.81925        -4.29938
   H       -8.80064        28.32209        -6.22132
   H       -7.37724        27.62896        -8.10800
   H       -6.27652        25.42499        -8.08892
*
