# ORCA input file
# SCF done       -184.680471907516          0.002090592605
! CAM-B3LYP def2-SVP def2/J RIJCOSX Grid4 TightSCF
%maxcore 5000
%tddft
    Mode sTDDFT
    Ethresh 5.0
    maxcore 5000
end

%pal
  nprocs 6
  end
* xyz 0 1
   C        4.62764         5.24649        -2.31609
   C        4.95763         4.37449        -1.31192
   C        6.17572         3.66304        -1.25930
   N        7.14695         3.05947        -1.15987
   C        4.13381         4.02098        -0.22161
   N        3.51891         3.67276         0.68386
   C        5.44239         5.52528        -3.49117
   C        4.67292         6.31021        -4.39526
   C        5.16992         6.72576        -5.59747
   C        6.49133         6.37586        -5.95289
   C        7.27276         5.59874        -5.04903
   C        6.72759         5.17738        -3.81439
   C        8.59326         5.26201        -5.41019
   C        9.11789         5.67169        -6.60614
   C        8.34740         6.43637        -7.49525
   C        7.06179         6.78042        -7.17606
   C        3.34622         6.57536        -3.81687
   O        2.43819         7.16634        -4.36293
   C        3.38082         5.98941        -2.45121
   C        2.51572         6.19687        -1.41626
   C        1.27983         6.88087        -1.35953
   S        0.58696         7.12450         0.23406
   C       -0.78914         7.94630        -0.41211
   C       -0.70715         8.00034        -1.81370
   C        0.44836         7.40300        -2.33112
   C       -1.67270         8.58712        -2.64680
   N       -2.46175         9.06117        -3.33417
   C       -1.77022         8.45838         0.47022
   C       -2.87748         9.14856         0.09482
   C       -3.82022         9.69184         0.99827
   S       -3.63157         9.55425         2.72525
   C       -4.95818        10.41183         0.67328
   O       -5.36869        10.68877        -0.59247
   C       -5.68731        10.87406         1.80456
   N       -6.83040        11.59245         1.75878
   N       -7.67444        11.65507         0.64439
   C       -5.05868        10.51413         3.01613
   C       -5.41369        10.85642         4.33074
   C       -6.28454        11.84143         4.78191
   C       -6.30181        11.84187         6.19031
   C       -5.38861        10.76568         6.61705
   C       -4.86066        10.19650         5.50333
   C       -5.11214        10.37362         7.93098
   N       -4.86199        10.03075         8.99824
   C       -7.00525        12.70591         7.01457
   C       -6.92559        12.81996         8.42252
   C       -7.73822        13.86192         8.84281
   C       -8.38369        14.41600         7.66908
   C       -7.95704        13.73559         6.56871
   C       -8.38064        13.95198         5.25678
   N       -8.73576        14.11679         4.17426
   C       -7.91333        14.38960        10.14486
   C       -7.38213        13.84657        11.27628
   C       -7.49576        14.38419        12.57865
   C       -7.61335        15.69965        12.94391
   C       -7.78498        16.16337        14.30718
   C       -8.30393        15.43372        15.34622
   C       -8.47719        15.93685        16.65148
   N       -8.63390        16.28817        17.73348
   C       -8.77895        14.11009        15.23600
   N       -9.20976        13.04583        15.21074
   C       -7.40584        17.56931        14.35783
   C       -7.10035        17.99648        13.03507
   C       -7.28008        16.87417        12.09496
   O       -7.13220        16.92236        10.89199
   C       -6.71060        19.27550        12.76173
   C       -6.60674        20.20447        13.82143
   C       -6.90566        19.78333        15.14920
   C       -7.30643        18.45068        15.40106
   C       -6.79480        20.71811        16.19848
   C       -6.40999        22.00757        15.95022
   C       -6.11670        22.42125        14.64233
   C       -6.21322        21.53889        13.60072
   H        4.56283         7.31783        -6.26626
   H        7.34700         4.59623        -3.15013
   H        9.18153         4.67161        -4.72304
   H       10.13028         5.40882        -6.87360
   H        8.77783         6.75217        -8.43396
   H        6.46401         7.36940        -7.85634
   H        2.82376         5.80908        -0.45186
   H        0.67341         7.36059        -3.38175
   H       -1.59574         8.28774         1.52491
   H       -3.05502         9.31740        -0.95829
   H       -4.76784        10.30535        -1.24382
   H       -7.34219        11.68494         2.62915
   H       -7.15320        11.43990        -0.20095
   H       -8.07581        12.58789         0.58642
   H       -6.78135        12.58443         4.19373
   H       -4.16656         9.37743         5.46581
   H       -6.30344        12.20694         9.04383
   H       -9.08182        15.23250         7.68482
   H       -8.53123        15.27165        10.21941
   H       -6.88192        12.88954        11.20621
   H       -7.40745        13.65991        13.38142
   H       -6.48526        19.57556        11.74900
   H       -7.51758        18.15852        16.41762
   H       -7.02295        20.39502        17.20360
   H       -6.32952        22.71640        16.76076
   H       -5.81368        23.44227        14.46432
   H       -5.98819        21.85140        12.59138
*
