# ORCA input file
# SCF done       -147.658472006294          0.000468757785
! CAM-B3LYP def2-SVP def2/J RIJCOSX Grid4 TightSCF
%maxcore 5000
%tddft
    Mode sTDDFT
    Ethresh 5.0
    maxcore 5000
end

%pal
  nprocs 6
  end
* xyz 0 1
   C        1.35505        -0.98608         1.38075
   N        1.27549        -0.13919         2.44230
   C        1.76686        -0.40434         3.77119
   C        0.89159        -1.41639         4.50517
   C        0.59118         1.04784         2.10442
   O        0.39331         1.95244         2.89544
   C        0.25219         0.87360         0.71405
   C        0.74388        -0.40949         0.30450
   C        0.41734        -0.58675        -1.09482
   O        0.61831        -1.48935        -1.87562
   N       -0.24346         0.61005        -1.44387
   C       -0.78064         0.79874        -2.76875
   C       -2.28991         0.57003        -2.81019
   C       -0.34575         1.47926        -0.38005
   C       -0.94202         2.76958        -0.47851
   C       -1.05115         3.59519         0.58575
   C       -1.61031         4.91736         0.56899
   C       -1.73698         5.64496         1.76721
   N       -2.21913         6.86251         1.81816
   C       -2.59830         7.41844         0.66446
   N       -2.53614         6.82286        -0.53706
   C       -2.05305         5.60243        -0.57454
   C       -3.10007         8.75355         0.68755
   S       -3.24978         9.68529         2.15122
   C       -3.85464        11.10678         1.30598
   C       -3.92819        10.82979        -0.04238
   C       -3.51215         9.51500        -0.38050
   N       -3.65165         9.37262        -1.72877
   C       -4.14813        10.53473        -2.25909
   S       -4.48969        10.82336        -3.83121
   N       -4.31016        11.42145        -1.22174
   C       -4.16759        12.30751         2.01830
   C       -4.31112        12.33245         3.41549
   N       -4.57750        13.42550         4.08770
   C       -4.71519        14.56210         3.39590
   N       -4.61544        14.64611         2.06684
   C       -4.34503        13.55790         1.39642
   C       -4.96201        15.80494         4.08349
   N       -5.40774        15.93453         5.37336
   C       -5.70508        14.88107         6.31324
   C       -4.45389        14.42465         7.05656
   C       -5.54756        17.28595         5.73939
   O       -5.94890        17.64416         6.83007
   C       -5.13665        18.02063         4.56584
   C       -4.79099        17.07401         3.55840
   C       -4.33406        17.80578         2.39441
   O       -3.91087        17.47224         1.31276
   N       -4.45153        19.16443         2.78438
   C       -4.13252        20.22434         1.86015
   C       -5.38562        20.81711         1.22027
   C       -4.92537        19.29634         4.06363
   C       -5.12092        20.56499         4.70767
   C       -5.59960        20.68072         5.94785
   H        1.85094        -1.93521         1.46589
   H        1.75597         0.55274         4.29958
   H        2.79727        -0.76744         3.70777
   H       -0.12767        -1.04555         4.57990
   H        1.27754        -1.57886         5.50744
   H        0.87803        -2.36766         3.97791
   H       -0.28157         0.05920        -3.40151
   H       -0.52659         1.79888        -3.13223
   H       -2.51884        -0.44299        -2.48892
   H       -2.65506         0.70332        -3.82474
   H       -2.81063         1.26545        -2.15522
   H       -1.30210         3.07324        -1.45049
   H       -0.68993         3.25727         1.54845
   H       -1.42999         5.21066         2.71043
   H       -2.00909         5.15605        -1.55999
   H       -3.42845         8.54198        -2.25261
   H       -4.68768        12.34429        -1.35787
   H       -4.20220        11.42475         3.99679
   H       -4.24151        13.68353         0.32719
   H       -6.15198        14.04155         5.77878
   H       -6.42531        15.29923         7.02241
   H       -3.73867        14.00454         6.35496
   H       -4.71872        13.66518         7.78627
   H       -3.99995        15.26561         7.57486
   H       -3.50807        19.76864         1.08626
   H       -3.55191        20.99796         2.37043
   H       -5.92668        20.04238         0.68301
   H       -5.10704        21.59790         0.51799
   H       -6.04579        21.24119         1.97366
   H       -4.85651        21.44655         4.14014
   H       -5.86877        19.81592         6.53122
   H       -5.73099        21.64601         6.40590
*
