# ORCA input file
# SCF done       -239.746444026591          0.000922431911
! CAM-B3LYP def2-SVP def2/J RIJCOSX Grid4 TightSCF
%maxcore 5000
%tddft
    Mode sTDDFT
    Ethresh 5.0
    maxcore 5000
end

%pal
  nprocs 6
  end
* xyz 0 1
   C       -1.05592        -0.20453         1.99948
   N       -2.25865        -0.70113         2.35620
   C       -2.58717        -2.09224         2.54497
   C       -2.83426        -2.79091         1.21027
   C       -3.23822         0.32829         2.44158
   O       -4.40208         0.11467         2.69860
   C       -2.49986         1.53152         2.13536
   C       -1.15896         1.16039         1.85218
   C       -0.42362         2.36371         1.49748
   O        0.72812         2.55042         1.18667
   N       -1.38679         3.38834         1.59016
   C       -1.05373         4.75633         1.27079
   C       -1.50789         5.13699        -0.13653
   C       -2.61867         2.91852         1.97973
   C       -3.74971         3.73300         2.16482
   C       -4.90833         3.27910         2.74165
   C       -6.07265         4.05078         2.87741
   C       -7.05057         3.94075         3.87914
   N       -7.07275         3.03266         4.95150
   O       -8.07940         3.00918         5.63970
   O       -6.09604         2.32766         5.14202
   C       -8.00236         4.97756         3.71764
   C       -7.63300         5.75058         2.64170
   C       -6.46308         5.20631         2.06178
   C       -5.91423         5.55924         0.81977
   C       -5.42133         4.65099        -0.14345
   C       -5.21906         5.31811        -1.33622
   C       -5.53413         6.67769        -1.15788
   N       -5.39249         7.63617        -2.16757
   O       -4.99395         7.25275        -3.25516
   O       -5.68003         8.80213        -1.92310
   C       -5.94135         6.88247         0.19097
   C       -6.13648         8.11609         0.79948
   C       -6.13214         8.32353         2.16976
   C       -6.36990         9.48761         2.88542
   N       -6.76426        10.74557         2.50694
   C       -7.09686        11.22251         1.18206
   C       -8.44153        10.68388         0.70356
   C       -6.91014        11.61020         3.61645
   O       -7.28922        12.75099         3.53103
   C       -6.53043        10.79134         4.76490
   C       -6.23526         9.52742         4.30338
   C       -5.89572         8.68820         5.44076
   O       -5.57041         7.52356         5.50319
   N       -6.03059         9.53703         6.55259
   C       -5.64889         9.03963         7.85577
   C       -4.27305         9.55220         8.27110
   C       -6.39186        10.82028         6.18595
   C       -6.58642        11.97690         6.92188
   C       -6.60551        12.13527         8.30543
   C       -6.77357        13.31152         9.01605
   C       -6.98103        14.66853         8.61032
   N       -6.70204        15.30277         7.38675
   O       -5.97906        14.74022         6.57931
   O       -7.16688        16.41761         7.22128
   C       -7.43099        15.40153         9.71244
   C       -7.50464        14.56792        10.82162
   C       -7.06478        13.28964        10.45955
   C       -6.86932        12.20312        11.33497
   C       -5.82777        11.26242        11.28629
   C       -5.88550        10.47886        12.42168
   C       -6.98141        10.88329        13.21558
   N       -7.24787        10.23357        14.42796
   O       -8.03615        10.72776        15.22445
   O       -6.64879         9.19313        14.64546
   C       -7.64817        11.94942        12.55522
   C       -8.88469        12.57686        12.73035
   C       -9.72996        12.53374        13.81805
   C      -10.93545        13.24351        13.83441
   N      -11.77994        13.28555        14.91708
   C      -11.56380        12.64093        16.19307
   C      -10.57119        13.41145        17.05845
   C      -12.90232        14.09269        14.69042
   O      -13.78052        14.27596        15.50560
   C      -12.72682        14.57792        13.33054
   C      -11.52584        14.04076        12.82912
   C      -11.36111        14.51424        11.47341
   O      -10.50203        14.32293        10.63427
   N      -12.48622        15.33668        11.25130
   C      -12.70130        15.96307         9.96830
   C      -13.71314        15.19168         9.12479
   C      -13.30947        15.37900        12.34098
   C      -14.51712        16.14410        12.39686
   C      -15.31853        16.16056        13.46750
   H       -0.20009        -0.84265         1.87662
   H       -3.49561        -2.12048         3.15221
   H       -1.77317        -2.57947         3.08788
   H       -3.66024        -2.31534         0.68735
   H       -3.08637        -3.83322         1.38213
   H       -1.94803        -2.74394         0.58105
   H        0.03578         4.82499         1.33356
   H       -1.49287         5.42246         2.01830
   H       -1.02323         4.49583        -0.86832
   H       -1.23335         6.16712        -0.34491
   H       -2.58554         5.03360        -0.24582
   H       -3.67497         4.77330         1.88329
   H       -4.92581         2.29015         3.18647
   H       -8.85704         5.11360         4.35268
   H       -8.18901         6.57579         2.23940
   H       -5.32744         3.59238         0.00564
   H       -4.88542         4.89316        -2.26424
   H       -6.20951         8.95703         0.12552
   H       -5.88018         7.48486         2.80681
   H       -6.29719        10.96816         0.48345
   H       -7.14972        12.31181         1.26470
   H       -8.44745         9.59673         0.68289
   H       -8.63981        11.04873        -0.29968
   H       -9.23625        11.02449         1.36282
   H       -5.61579         7.95046         7.75603
   H       -6.41444         9.28920         8.59361
   H       -3.52003         9.19306         7.57382
   H       -4.02811         9.18315         9.26305
   H       -4.24328        10.63978         8.27502
   H       -6.73786        12.85015         6.30133
   H       -6.55332        11.24940         8.91962
   H       -7.65096        16.45240         9.68612
   H       -7.75040        14.88543        11.81648
   H       -5.04315        11.23590        10.55538
   H       -5.20765         9.69325        12.69877
   H       -9.20402        13.17468        11.88689
   H       -9.45175        11.96810        14.69317
   H      -11.21538        11.61868        16.02927
   H      -12.53916        12.61200        16.68622
   H       -9.59105        13.44560        16.58963
   H      -10.47473        12.92044        18.02217
   H      -10.92218        14.42830        17.21857
   H      -11.73039        15.96382         9.46499
   H      -13.02279        16.99735        10.11530
   H      -13.35818        14.17852         8.95272
   H      -13.83743        15.68268         8.16390
   H      -14.67983        15.14067         9.62101
   H      -14.76442        16.72959        11.52224
   H      -15.09564        15.58618        14.35162
   H      -16.21627        16.75401        13.47878
*
