# ORCA input file
# SCF done       -212.349068519869          0.000898061045
! CAM-B3LYP def2-SVP def2/J RIJCOSX Grid4 TightSCF
%maxcore 5000
%tddft
    Mode sTDDFT
    Ethresh 5.0
    maxcore 5000
end

%pal
  nprocs 6
  end
* xyz 0 1
   C       -2.25189        -2.36393         2.62435
   C       -2.54726        -3.21512         1.59012
   C       -1.79608        -4.36764         1.27636
   N       -1.23548        -5.32159         0.97045
   C       -3.60300        -3.05766         0.66780
   N       -4.42008        -2.99080        -0.13696
   C       -1.09397        -2.47435         3.50043
   C       -1.04742        -1.32990         4.33449
   C       -0.05908        -1.13130         5.26834
   C        0.93129        -2.11052         5.38721
   C        0.87496        -3.25381         4.55325
   C       -0.12376        -3.45334         3.60769
   S        2.19496        -4.33272         4.87672
   C        2.79878        -3.26697         6.09769
   C        2.05277        -2.15268         6.26232
   C       -2.18937        -0.45033         4.03530
   O       -2.44081         0.60119         4.58477
   C       -2.97200        -1.15272         2.98645
   C       -4.21717        -0.83763         2.51859
   C       -4.99354         0.32794         2.68087
   C       -4.69459         1.59514         3.16530
   C       -5.76833         2.46760         3.04855
   C       -6.91288         1.86646         2.47738
   S       -6.65393         0.23793         2.07101
   C       -7.93653         2.83869         2.39491
   C       -7.44633         4.05655         2.89886
   C       -6.06842         3.86181         3.33105
   C       -5.23974         4.79966         3.87006
   C       -3.89891         4.53495         4.22694
   N       -2.80250         4.36119         4.51055
   C       -5.66633         6.12615         4.09901
   N       -6.01332         7.20238         4.28729
   C       -8.37644         5.09132         2.82150
   C       -9.57431         4.66861         2.26751
   S       -9.54875         2.96528         1.84430
   C      -10.72249         5.45737         1.99532
   C      -10.83412         6.83543         2.07710
   C      -12.09383         7.27913         1.67754
   C      -12.95307         6.23094         1.30322
   S      -12.20723         4.70202         1.43584
   C      -14.18756         6.78423         0.88198
   C      -14.10527         8.18461         0.97464
   C      -12.79245         8.54202         1.49001
   C      -12.31786         9.79598         1.73489
   C      -11.01694        10.02437         2.23288
   N       -9.95972        10.21233         2.63353
   C      -13.09641        10.94947         1.49928
   N      -13.73247        11.88387         1.30865
   C      -15.26246         8.82612         0.53588
   C      -16.22718         7.92560         0.12170
   S      -15.69670         6.25690         0.28170
   C      -17.50346         8.21619        -0.42287
   C      -18.51789         7.32180        -0.71840
   C      -19.62064         7.95662        -1.28618
   C      -19.43808         9.34269        -1.43353
   S      -17.92094         9.86800        -0.84938
   C      -20.58911         9.88674        -2.05164
   C      -21.50932         8.84474        -2.28767
   C      -20.93363         7.60041        -1.80607
   C      -21.49387         6.35799        -1.83992
   C      -20.82022         5.22148        -1.34391
   N      -20.27019         4.29740        -0.94648
   C      -22.77777         6.12415        -2.37773
   N      -23.81637         5.92698        -2.82064
   C      -22.65893         9.28193        -2.93561
   C      -22.64132        10.64790        -3.18262
   S      -21.14534        11.39032        -2.61683
   C      -23.61497        11.34973        -3.92886
   C      -23.76850        12.68408        -4.14026
   C      -23.22582        13.85617        -3.48696
   C      -22.98268        13.98615        -2.14423
   C      -22.56002        15.18550        -1.53732
   N      -22.20287        16.13702        -1.00422
   C      -23.23289        12.95105        -1.22065
   N      -23.46263        12.13602        -0.44536
   C      -23.27833        14.94892        -4.44967
   C      -24.07277        14.54040        -5.55320
   C      -24.50030        13.14313        -5.35742
   O      -25.23099        12.47847        -6.05406
   C      -24.33850        15.37314        -6.61358
   C      -23.78574        16.65740        -6.59010
   C      -22.98376        17.04871        -5.49006
   C      -22.72325        16.21227        -4.41057
   S      -22.39704        18.66932        -5.68511
   C      -23.21598        18.80967        -7.20205
   C      -23.89828        17.69835        -7.55446
   H       -0.05239        -0.24576         5.88470
   H       -0.12384        -4.34277         3.00018
   H        3.69005        -3.54582         6.62550
   H        2.27491        -1.37854         6.97423
   H       -4.71155        -1.59594         1.92214
   H       -3.73554         1.84265         3.58271
   H       -8.20364         6.09946         3.14917
   H      -10.02994         7.47355         2.39313
   H      -15.41176         9.89069         0.51200
   H      -18.43980         6.26732        -0.52291
   H      -23.48783         8.65683        -3.21509
   H      -24.28039        10.71777        -4.51058
   H      -24.95302        15.04314        -7.43668
   H      -22.10188        16.54644        -3.59578
   H      -23.13350        19.73097        -7.74525
   H      -24.46538        17.60235        -8.46256
*
