# ORCA input file
# SCF done       -186.180355692785          0.001166643361
! CAM-B3LYP def2-SVP def2/J RIJCOSX Grid4 TightSCF
%maxcore 5000
%tddft
    Mode sTDDFT
    Ethresh 5.0
    maxcore 5000
end

%pal
  nprocs 6
  end
* xyz 0 1
   C        0.77222       -11.44551        -6.16373
   C        0.90683       -10.64144        -7.28485
   C       -0.14853        -9.86139        -7.73855
   C       -1.37123        -9.86412        -7.08504
   C       -1.51670       -10.66002        -5.96125
   C       -0.44337       -11.45442        -5.49625
   C       -0.86874       -12.17551        -4.30638
   C       -0.17596       -13.16284        -3.66361
   C        1.10223       -13.61717        -4.05740
   N        2.13991       -14.03023        -4.32017
   C       -0.65058       -13.89963        -2.55650
   N       -0.98283       -14.54238        -1.66551
   C       -2.17865       -11.63466        -3.94034
   C       -2.66177       -10.87294        -5.09036
   C       -3.97338       -10.65031        -5.41147
   C       -5.06369       -11.11968        -4.65112
   N       -5.98705       -11.51623        -4.09631
   C       -4.38991        -9.94749        -6.56080
   N       -4.78734        -9.35712        -7.46084
   C       -2.73273       -11.72560        -2.70136
   C       -3.76061       -10.91433        -2.15185
   C       -4.65725       -11.34223        -1.06613
   N       -5.47093       -10.41710        -0.65402
   C       -5.18151        -9.31204        -1.39111
   C       -4.10322        -9.59437        -2.35328
   C       -3.74792        -8.37925        -3.05008
   S       -2.47707        -8.13523        -4.07781
   C       -4.67205        -7.40384        -2.56165
   C       -5.52699        -7.98780        -1.53345
   N       -6.38893        -7.04970        -1.03467
   C       -6.11815        -5.94685        -1.66138
   C       -5.03884        -6.06176        -2.65588
   C       -4.52607        -5.10630        -3.53538
   C       -4.77362        -3.74959        -3.57563
   C       -4.25372        -2.86454        -4.54848
   C       -4.59745        -1.55698        -4.35973
   C       -5.39117        -1.34302        -3.21531
   S       -5.72021        -2.85223        -2.40828
   C       -5.84429        -0.12849        -2.71070
   C       -5.64216         1.15682        -3.25101
   C       -6.15778         2.15935        -2.48112
   C       -6.79161         1.71684        -1.29688
   S       -6.73028        -0.03030        -1.21260
   C       -7.31933         2.55295        -0.33431
   C       -7.93795         2.22354         0.87235
   C       -8.35675         0.91599         1.40330
   N       -8.90735         0.96653         2.57727
   C       -8.90019         2.28599         2.93992
   C       -8.31376         3.10504         1.88608
   C       -8.28723         4.48060         2.27837
   S       -7.73146         5.78102         1.43471
   C       -8.85534         4.47593         3.60829
   C       -9.24123         3.11627         3.98677
   N       -9.77220         3.10306         5.24137
   C       -9.77725         4.34029         5.63936
   C       -9.20951         5.28579         4.66378
   C       -8.96823         6.67273         4.84445
   C       -9.69537         7.52089         5.62256
   C       -9.23325         8.80671         6.14168
   C       -8.17522         9.54575         5.69210
   C       -7.34568         9.20831         4.59919
   N       -6.62818         9.00256         3.72766
   C       -7.78312        10.78335         6.24899
   N       -7.41179        11.79172         6.65086
   C      -10.11366         9.14461         7.25177
   C      -11.16576         8.20074         7.31114
   C      -12.13413         8.28220         8.29868
   C      -12.04734         9.30921         9.22643
   C      -11.01994        10.24089         9.16624
   C      -10.04579        10.17090         8.18184
   C      -11.00878         7.26780         6.20809
   C      -11.98448         6.47544         5.66794
   C      -13.26114         6.30549         6.24556
   N      -14.30573         6.12961         6.68543
   C      -11.87673         5.83195         4.41512
   N      -11.87455         5.36006         3.36901
   H        1.60353       -12.03973        -5.82101
   H        1.85024       -10.62058        -7.80888
   H       -0.01592        -9.23969        -8.61084
   H       -2.18071        -9.24514        -7.43652
   H       -2.31175       -12.44109        -2.00594
   H       -4.67798       -12.33175        -0.64560
   H       -6.68408        -5.05663        -1.45032
   H       -3.83262        -5.48092        -4.27978
   H       -3.64440        -3.22152        -5.35963
   H       -4.29017        -0.75288        -5.00314
   H       -5.12422         1.31388        -4.17947
   H       -6.09573         3.20518        -2.72398
   H       -7.21014         3.61490        -0.52383
   H       -8.25712        -0.02807         0.89714
   H      -10.11374         4.59396         6.62972
   H       -8.07667         7.04787         4.35757
   H      -12.93184         7.55951         8.35859
   H      -12.78902         9.38132        10.00695
   H      -10.97352        11.03220         9.89878
   H       -9.25314        10.90040         8.15382
*
