# ORCA input file
# SCF done       -145.008514351893          0.000758834981
! CAM-B3LYP def2-SVP def2/J RIJCOSX Grid4 TightSCF
%maxcore 5000
%tddft
    Mode sTDDFT
    Ethresh 5.0
    maxcore 5000
end

%pal
  nprocs 6
  end
* xyz 0 1
   C       -3.09539        -3.09009        -1.29213
   C       -2.11082        -2.81884        -0.39091
   C       -1.98684        -1.43368        -0.17102
   C       -2.89876        -0.68997        -0.92643
   S       -3.89631        -1.67847        -1.89552
   C       -2.69914         0.69425        -0.64459
   C       -1.65943         0.81270         0.28505
   C       -1.17948        -0.52133         0.62079
   C       -0.18765        -0.84072         1.50103
   C        0.52008         0.14496         2.22074
   N        1.08987         0.94968         2.80608
   C        0.19175        -2.17564         1.75477
   N        0.50357        -3.25906         1.96336
   C       -1.37921         2.14166         0.61927
   C       -2.20254         3.02680        -0.04137
   S       -3.34475         2.20357        -1.09721
   C       -2.21304         4.45925         0.04718
   C       -1.17686         5.19953         0.64128
   N       -1.19672         6.50897         0.71270
   C       -2.24614         7.14732         0.19502
   N       -3.28511         6.54694        -0.38690
   C       -3.26528         5.23727        -0.45897
   C       -2.25740         8.59994         0.26447
   C       -1.11894         9.33493         0.61168
   N       -1.13458        10.64687         0.67841
   C       -2.27535        11.26944         0.36388
   N       -3.41405        10.66337         0.02675
   C       -3.40650         9.35025        -0.01221
   C       -2.23957        12.70525         0.38114
   C       -1.08791        13.44891         0.50206
   C       -1.36412        14.85225         0.52123
   C       -0.47142        15.91997         0.57716
   C       -0.96887        17.21354         0.59617
   C       -2.35202        17.46138         0.53636
   C       -3.24090        16.41607         0.44470
   C       -2.74826        15.11584         0.43472
   S       -3.68644        13.65797         0.31898
   C       -0.06794        18.30003         0.68085
   N        0.66779        19.17632         0.75093
   C        0.21538        12.82607         0.55502
   C        1.13787        13.07359         1.51010
   C        2.49901        12.55842         1.57995
   C        3.02453        11.54244         0.82984
   C        4.34856        11.06991         0.95918
   N        5.41419        10.64757         1.01557
   C        2.31813        10.79224        -0.13456
   N        1.82102        10.12517        -0.92614
   C        3.18121        13.28211         2.64308
   C        2.24327        14.10952         3.31427
   C        0.91854        13.95886         2.68876
   O       -0.13021        14.43533         3.06317
   C        2.59245        14.91516         4.37158
   C        3.92895        14.91437         4.78078
   C        4.85907        14.08891         4.10224
   C        4.50648        13.26807         3.03853
   S        6.45121        14.25472         4.77202
   C        5.87156        15.40178         5.92896
   C        4.54840        15.65492         5.82617
   H       -3.41077        -4.04945        -1.65057
   H       -1.51171        -3.57376         0.08434
   H       -0.62221         2.44651         1.31812
   H       -0.30345         4.71821         1.06066
   H       -4.12206         4.77332        -0.93439
   H       -0.18290         8.84113         0.83279
   H       -4.33547         8.86320        -0.27512
   H        0.59375        15.74535         0.61126
   H       -2.70475        18.48137         0.55685
   H       -4.30285        16.59346         0.38338
   H        0.44120        12.13783        -0.24785
   H        1.85578        15.53217         4.86232
   H        5.25134        12.66140         2.55085
   H        6.56939        15.82369         6.62590
   H        4.01520        16.34044         6.45954
*
