# ORCA input file
# SCF done       -217.926241107957          0.000797313713
! CAM-B3LYP def2-SVP def2/J RIJCOSX Grid4 TightSCF
%maxcore 5000
%tddft
    Mode sTDDFT
    Ethresh 5.0
    maxcore 5000
end

%pal
  nprocs 6
  end
* xyz 0 1
   C        0.48797        -1.44550         6.92288
   C        0.75331        -1.73647         8.23181
   F        1.29553        -0.80880         9.03116
   C        0.46210        -3.01158         8.75651
   F        0.73366        -3.26931        10.04285
   C       -0.09088        -3.97876         7.96457
   C       -0.37448        -3.70979         6.61167
   C       -0.08081        -2.42090         6.07974
   C       -0.35464        -2.12779         4.72350
   C       -0.90202        -3.09490         3.92289
   C       -1.18801        -4.37996         4.46331
   C       -0.93974        -4.69228         5.76855
   C       -1.74914        -5.23220         3.40252
   O       -2.11966        -6.38806         3.52555
   C       -1.75679        -4.42038         2.18290
   C       -1.28096        -3.08993         2.51079
   C       -1.21886        -1.99963         1.68229
   C       -1.62396        -1.96818         0.33121
   N       -1.94195        -1.85922        -0.76699
   C       -0.75166        -0.73024         2.08409
   N       -0.38520         0.32483         2.34935
   C       -2.09172        -4.87210         0.92967
   C       -2.54749        -6.12895         0.51081
   C       -2.76544        -6.41972        -0.84298
   C       -3.20983        -7.71068        -1.04349
   C       -3.35626        -8.42302         0.17489
   S       -2.92034        -7.51159         1.54493
   C       -3.80253        -9.72831        -0.13532
   C       -3.93183        -9.84821        -1.53178
   C       -3.56682        -8.58396        -2.14879
   C       -3.55313        -8.29862        -3.48311
   C       -3.90867        -9.25637        -4.45514
   N       -4.19155       -10.03769        -5.24620
   C       -3.17358        -7.03419        -3.98177
   N       -2.85792        -6.01296        -4.39550
   C       -4.35217       -11.11151        -1.93343
   C       -4.55018       -11.95824        -0.85442
   S       -4.21480       -11.17646         0.68030
   C       -4.94995       -13.31450        -0.92400
   C       -5.25013       -14.19327         0.10154
   C       -5.58735       -15.45946        -0.37863
   C       -5.53286       -15.53836        -1.78245
   S       -5.08565       -14.06595        -2.50988
   C       -5.86562       -16.85033        -2.17941
   C       -6.14286       -17.61543        -1.03348
   C       -5.97918       -16.76244         0.13757
   C       -6.15187       -17.11444         1.44362
   C       -6.52969       -18.41960         1.82382
   N       -6.83091       -19.48153         2.13351
   C       -5.95709       -16.19582         2.49673
   N       -5.79569       -15.44681         3.34963
   C       -6.47494       -18.93524        -1.33559
   C       -6.44754       -19.17971        -2.69934
   S       -6.00152       -17.74680        -3.61964
   C       -6.72873       -20.38595        -3.39999
   C       -6.67931       -20.43967        -4.77352
   C       -6.95736       -21.55910        -5.54411
   C       -7.33972       -22.83145        -4.93117
   C       -7.44419       -23.01343        -3.59510
   S       -7.15119       -21.78652        -2.42970
   C       -7.58029       -23.70850        -6.02514
   C       -7.39359       -23.03187        -7.23665
   C       -7.62942       -23.87181        -8.34688
   C       -7.98207       -25.12622        -7.96148
   S       -8.04425       -25.34558        -6.24654
   C       -6.99993       -21.67857        -6.95160
   C       -6.77873       -20.58312        -7.80630
   C       -6.99899       -20.47395        -9.14635
   C       -6.81983       -19.25538        -9.84301
   C       -6.79360       -17.98002        -9.34939
   C       -6.13948       -16.90850       -10.15416
   O       -5.82930       -16.97182       -11.32266
   C       -5.90840       -15.80134        -9.20786
   C       -6.50273       -16.11107        -7.97168
   C       -6.38999       -15.22087        -6.91783
   C       -5.70007       -14.02500        -7.09498
   C       -5.11435       -13.71767        -8.33351
   C       -5.22305       -14.61738        -9.39005
   C       -4.37917       -12.43039        -8.51741
   C       -5.58488       -13.06798        -5.95376
   C       -7.19063       -17.39342        -8.08693
   C       -8.20071       -17.81321        -7.25500
   C       -9.02495       -18.92643        -7.51192
   N       -9.75061       -19.80013        -7.68095
   C       -8.55893       -17.16658        -6.05800
   N       -8.86456       -16.71915        -5.04418
   H        0.71649        -0.46410         6.53749
   H       -0.30784        -4.94990         8.38117
   H       -0.11782        -1.14365         4.35352
   H       -1.16834        -5.67533         6.15124
   H       -1.97591        -4.17207         0.11091
   H       -2.59153        -5.69446        -1.61838
   H       -4.51518       -11.41844        -2.95087
   H       -5.22158       -13.90780         1.13790
   H       -6.72811       -19.69139        -0.61422
   H       -6.40887       -19.52064        -5.27646
   H       -7.73523       -23.95470        -3.15627
   H       -7.54519       -23.57951        -9.37689
   H       -8.21795       -25.96267        -8.58995
   H       -6.39315       -19.70028        -7.31235
   H       -7.27778       -21.33998        -9.72645
   H       -6.61247       -19.32563       -10.90665
   H       -6.82158       -15.44361        -5.95424
   H       -4.78156       -14.39774       -10.35067
   H       -3.57708       -12.33829        -7.78649
   H       -5.04762       -11.58316        -8.36828
   H       -3.95472       -12.36672        -9.51553
   H       -6.17181       -13.41003        -5.10571
   H       -5.92793       -12.07645        -6.24217
   H       -4.54519       -12.96788        -5.64340
*
