# ORCA input file
# SCF done       -172.527315411538          0.000989594764
! CAM-B3LYP def2-SVP def2/J RIJCOSX Grid4 TightSCF
%maxcore 5000
%tddft
    Mode sTDDFT
    Ethresh 5.0
    maxcore 5000
end

%pal
  nprocs 6
  end
* xyz 0 1
   C        4.76326        -1.32311         1.03358
   C        4.99895        -0.54961         2.12950
   C        4.29646         0.66852         2.05647
   C        3.53889         0.77847         0.88468
   S        3.68715        -0.59745        -0.11388
   C        2.86517         2.03386         0.89480
   C        3.20086         2.70825         2.07624
   C        4.11614         1.87351         2.84551
   C        4.68618         2.17388         4.04781
   C        4.43437         3.39209         4.71332
   N        4.23185         4.38287         5.25389
   C        5.56957         1.29016         4.70295
   N        6.28957         0.57568         5.23784
   C        2.58729         3.95777         2.18269
   C        1.79192         4.23607         1.08783
   S        1.80020         2.93139        -0.09072
   C        1.02383         5.40503         0.84668
   C        0.26851         5.69898        -0.27334
   C       -0.35064         6.94500        -0.17017
   C       -0.06656         7.59983         1.03799
   S        0.96560         6.68615         2.04720
   C       -0.73793         8.85129         1.04782
   C       -1.44444         8.98414        -0.16455
   C       -1.22559         7.79373        -0.96727
   C       -1.72669         7.52170        -2.20611
   C       -2.56721         8.42073        -2.89677
   N       -3.25078         9.14201        -3.46848
   C       -1.43665         6.31889        -2.88417
   N       -1.20554         5.34076        -3.43645
   C       -2.13836        10.19049        -0.25073
   C       -1.95957        10.95506         0.88420
   S       -0.92973        10.19713         2.07610
   C       -2.51226        12.24160         1.16613
   N       -3.28489        12.82876         0.22955
   C       -3.76725        13.99969         0.54501
   C       -3.48667        14.59398         1.79598
   N       -2.70088        13.93871         2.66456
   N       -2.22540        12.78661         2.35068
   C       -3.99987        15.86767         2.19558
   C       -3.80354        16.48925         3.41196
   C       -4.45293        17.72282         3.47488
   C       -5.14326        18.03467         2.28982
   S       -4.99940        16.81780         1.10667
   C       -5.76782        19.29855         2.44577
   C       -5.47688        19.78532         3.72917
   C       -4.64209        18.81170         4.41989
   C       -4.14940        18.90690         5.68750
   C       -4.41561        20.02242         6.50974
   N       -4.63334        20.92796         7.17877
   C       -3.34348        17.90304         6.26681
   N       -2.68850        17.09745         6.75222
   C       -6.04902        21.03370         3.97836
   C       -6.76930        21.49691         2.89319
   S       -6.74281        20.37303         1.54359
   C       -7.47710        22.72178         2.77943
   C       -8.17920        23.18956         1.68509
   C       -8.74655        24.44158         1.92717
   C       -8.47405        24.92511         3.21369
   S       -7.52052        23.84619         4.12960
   C       -9.09293        26.20056         3.35633
   C       -9.75039        26.51437         2.16097
   C       -9.55814        25.42570         1.22081
   C      -10.02982        25.33473        -0.05584
   C      -10.80890        26.35309        -0.64443
   N      -11.44159        27.17789        -1.12821
   C       -9.76847        24.21468        -0.87273
   N       -9.55758        23.30428        -1.53731
   C      -10.39196        27.76659         2.21349
   C      -10.21139        28.36443         3.42374
   S       -9.26130        27.42839         4.52937
   H        5.16009        -2.29506         0.81868
   H        5.64037        -0.84227         2.94045
   H        2.70514         4.63984         3.00557
   H        0.18555         5.03154        -1.11225
   H       -2.74524        10.51839        -1.07465
   H       -4.38988        14.49159        -0.19261
   H       -3.21376        16.03881         4.18914
   H       -5.95447        21.58861         4.89443
   H       -8.26303        22.63704         0.76642
   H      -10.95400        28.20404         1.40882
   H      -10.58250        29.31621         3.74728
*
