# ORCA input file
# SCF done       -211.794089916252          0.000694508260
! CAM-B3LYP def2-SVP def2/J RIJCOSX Grid4 TightSCF
%maxcore 5000
%tddft
    Mode sTDDFT
    Ethresh 5.0
    maxcore 5000
end

%pal
  nprocs 6
  end
* xyz 0 1
   C       -4.52635        -2.28314        -5.86357
   C       -3.25965        -2.07187        -6.31356
   C       -2.49582        -1.34747        -5.37721
   C       -3.22628        -1.02844        -4.22540
   S       -4.82942        -1.61094        -4.29341
   C       -2.38227        -0.30383        -3.33888
   C       -1.12301        -0.16720        -3.93465
   C       -1.15255        -0.82206        -5.23916
   C       -0.12389        -0.91810        -6.13089
   C        1.14719        -0.36439        -5.87324
   N        2.18148         0.08694        -5.66906
   C       -0.26169        -1.58126        -7.36797
   N       -0.36827        -2.11883        -8.37528
   C       -0.21418         0.53069        -3.13854
   C       -0.77066         0.92625        -1.93600
   S       -2.45284         0.42482        -1.79546
   C       -0.14155         1.64098        -0.87439
   C       -0.78170         1.94730         0.29888
   C       -0.20232         2.62282         1.37405
   C        1.19825         3.06315         1.32371
   C        2.01309         2.87627         0.26434
   S        1.53608         2.08903        -1.18355
   C        1.43998         3.67256         2.58370
   C        0.28579         3.61517         3.37142
   C        0.48345         4.24075         4.62474
   C        1.74477         4.72823         4.75298
   S        2.74838         4.46139         3.36864
   C       -0.75096         2.95520         2.62116
   C       -2.08501         2.66489         3.03355
   C       -2.52810         2.69136         4.30412
   C       -3.90854         2.43259         4.67169
   C       -4.92374         3.02650         3.98425
   S       -6.49484         2.72493         4.61734
   C       -5.79768         1.72339         5.85191
   C       -4.40034         1.63167         5.76924
   C       -3.71274         0.78584         6.67169
   C       -2.22311         0.63484         6.49550
   C       -1.43001         1.58208         7.39930
   C       -4.40451         0.10010         7.66520
   C       -3.65665        -0.68831         8.70943
   C       -3.75207        -0.01694        10.08159
   C       -5.81925         0.19025         7.73574
   C       -6.77624        -0.42731         8.63471
   C       -8.05391         0.00137         8.38731
   S       -8.20865         1.08239         7.07194
   C       -6.48770         1.02622         6.82793
   C       -6.53191        -1.43975         9.62569
   C       -7.26877        -1.62056        10.74594
   C       -7.02238        -2.66509        11.67776
   C       -7.60239        -2.92188        12.88983
   C       -7.00373        -4.09688        13.47252
   N       -6.05503        -4.57337        12.62912
   C       -5.99552        -3.74360        11.50199
   O       -5.22278        -3.93053        10.59420
   C       -5.20070        -5.71274        12.82490
   C       -7.51835        -4.30087        14.72861
   C       -8.53675        -3.22080        14.91354
   O       -9.28706        -3.04517        15.84835
   N       -8.53406        -2.43957        13.76643
   C       -9.36385        -1.27740        13.60374
   C       -7.23513        -5.32781        15.65460
   C       -7.45381        -5.33195        17.00038
   C       -7.49066        -6.62263        17.73467
   O       -7.14151        -7.70441        17.32425
   C       -8.08588        -6.29796        19.05437
   C       -8.27602        -4.90659        19.14505
   C       -8.87864        -4.36033        20.26586
   C       -9.26009        -5.20255        21.30766
   C       -9.04735        -6.58865        21.21627
   C       -8.45775        -7.14442        20.07591
   C       -9.39405        -7.46654        22.27490
   N       -9.59913        -8.25583        23.07892
   C       -9.95721        -4.67036        22.52673
   O      -10.74090        -5.32738        23.15023
   O       -9.65877        -3.41585        22.88385
   C       -7.74223        -4.27431        17.94032
   C       -7.34392        -2.96609        17.85686
   C       -6.62010        -2.44179        16.76912
   N       -6.00421        -1.99390        15.90981
   C       -7.53328        -2.04103        18.90172
   N       -7.66376        -1.28229        19.75349
   H       -5.32309        -2.80081        -6.35883
   H       -2.89830        -2.41846        -7.26440
   H        0.80446         0.74314        -3.40861
   H       -1.81136         1.62524         0.38792
   H        3.03896         3.20936         0.25237
   H       -0.25714         4.34997         5.39538
   H        2.16420         5.24561         5.59373
   H       -2.76720         2.34862         2.25474
   H       -1.85095         2.95027         5.10107
   H       -4.82398         3.68596         3.14401
   H       -1.97863         0.83826         5.45236
   H       -1.91855        -0.39463         6.68856
   H       -1.80660         2.59939         7.31367
   H       -0.37754         1.57338         7.12300
   H       -1.51310         1.28706         8.44170
   H       -2.60462        -0.76603         8.45018
   H       -4.03642        -1.70751         8.76383
   H       -3.33690         0.98792        10.03870
   H       -3.19397        -0.59273        10.81605
   H       -4.78252         0.05675        10.41799
   H       -8.94387        -0.32919         8.88643
   H       -5.72393        -2.12780         9.44530
   H       -8.06494        -0.93218        10.99657
   H       -4.69180        -5.64203        13.78727
   H       -4.46679        -5.71242        12.01944
   H       -5.77471        -6.64069        12.78554
   H       -9.97821        -1.18955        14.49934
   H      -10.01044        -1.38550        12.73094
   H       -8.74947        -0.38138        13.49720
   H       -6.86664        -6.26433        15.24746
   H       -9.09436        -3.30303        20.30604
   H       -8.30084        -8.20961        19.99859
   H       -8.99820        -2.98623        22.32220
*
