# ORCA input file
# SCF done       -214.862950127500          0.000254455595
! CAM-B3LYP def2-SVP def2/J RIJCOSX Grid4 TightSCF
%maxcore 5000
%tddft
    Mode sTDDFT
    Ethresh 5.0
    maxcore 5000
end

%pal
  nprocs 6
  end
* xyz 0 1
   C        2.00227        10.01841         6.31876
   C        1.69658        11.21937         5.72645
   C        1.56113        12.43014         6.43265
   N        1.42049        13.44112         6.95933
   C        1.57732        11.40061         4.33453
   N        1.51699        11.61225         3.20749
   C        2.40500         9.85020         7.71265
   C        3.09968         8.61153         7.83460
   C        3.62473         8.19790         9.02402
   C        3.46411         9.01206        10.16868
   C        2.75637        10.24318        10.05661
   C        2.23133        10.65111         8.80795
   C        2.59535        11.04073        11.20728
   C        3.11015        10.64474        12.41180
   C        3.80785         9.43299        12.52110
   C        3.98149         8.63449        11.42315
   C        3.10432         7.92785         6.52791
   O        3.64070         6.88271         6.23382
   C        2.24735         8.76575         5.64587
   C        1.78646         8.23275         4.47457
   C        0.67142         8.61712         3.70710
   C       -0.41687         9.40532         4.05833
   C       -1.39142         9.52534         3.07478
   C       -2.49008        10.48925         3.23075
   C       -2.46562        11.60622         2.36742
   C       -3.36418        12.64572         2.54429
   C       -4.28524        12.58617         3.57867
   C       -4.33137        11.49814         4.41867
   C       -3.43908        10.43638         4.25351
   O       -3.60595         9.41330         5.13752
   C       -3.21942         8.10020         4.80327
   O       -1.51548        11.56381         1.39762
   C       -1.29699        12.70945         0.61048
   C       -1.07445         8.81114         1.90856
   S        0.46084         8.00117         2.09363
   C       -1.73983         8.63599         0.68560
   C       -3.05114         8.85267         0.33251
   C       -3.56483         8.63606        -0.97300
   C       -4.90827         8.82527        -1.09425
   C       -5.53561         9.19347         0.11475
   S       -4.36064         9.31013         1.40220
   C       -6.87541         9.44584         0.35419
   C       -7.95880         9.34386        -0.54371
   C       -9.17165         9.62664         0.01205
   C       -9.11113         9.97220         1.38246
   S       -7.44241         9.93360         1.93268
   C      -10.10618        10.29432         2.27706
   C      -11.49152        10.32594         2.07419
   C      -12.42503        10.61616         3.07028
   C      -13.75363        10.56884         2.66834
   C      -14.84296        10.72945         3.63701
   C      -14.94094        11.84793         4.47293
   C      -15.95464        11.90079         5.43435
   C      -16.87130        10.88364         5.54545
   C      -16.79698         9.77453         4.71582
   C      -15.78212         9.68743         3.77834
   O      -15.58888         8.60619         2.96532
   C      -16.49049         7.53015         3.03900
   O      -14.11032        12.92262         4.47055
   C      -13.58812        13.43591         3.25921
   C      -13.89123        10.22686         1.30995
   S      -12.31591         9.97036         0.58662
   C      -15.00109         9.91720         0.51632
   C      -16.32649        10.21713         0.74120
   C      -17.45649         9.49769         0.20825
   C      -17.42558         8.38429        -0.59929
   C      -18.57320         7.70012        -1.04427
   N      -19.46527         7.09486        -1.44219
   C      -16.26236         7.75441        -1.08210
   N      -15.36700         7.16776        -1.50129
   C      -18.66664        10.08634         0.78026
   C      -18.28893        11.18695         1.60058
   C      -16.82771        11.35347         1.53330
   O      -16.18806        12.30741         1.93624
   C      -19.20273        11.91375         2.30418
   C      -20.57011        11.56339         2.22146
   C      -20.95956        10.47212         1.39376
   C      -19.98627         9.73908         0.67395
   C      -22.32581        10.13661         1.31098
   C      -23.26456        10.84264         2.01337
   C      -22.87965        11.91517         2.83070
   C      -21.56076        12.26707         2.93308
   H        4.15520         7.25986         9.09363
   H        1.69233        11.58418         8.75244
   H        2.05975        11.97449        11.11738
   H        2.98262        11.26388        13.28721
   H        4.20681         9.13496        13.47922
   H        4.51780         7.69998        11.50126
   H        2.30880         7.33967         4.14525
   H       -0.51483         9.87405         5.02256
   H       -3.35101        13.50314         1.89191
   H       -4.98125        13.39945         3.71519
   H       -5.05225        11.43245         5.21674
   H       -3.88103         7.44425         5.37082
   H       -2.18407         7.89400         5.09178
   H       -3.34461         7.90272         3.73633
   H       -2.15693        12.92661        -0.03220
   H       -0.43282        12.47421        -0.00825
   H       -1.06985        13.58188         1.22934
   H       -1.12545         8.21463        -0.10208
   H       -2.91771         8.34994        -1.78333
   H       -5.45630         8.71247        -2.01222
   H       -7.81976         9.05795        -1.57077
   H      -10.09944         9.59397        -0.52830
   H       -9.78936        10.53633         3.28391
   H      -12.13034        10.82047         4.08555
   H      -15.99945        12.77078         6.06922
   H      -17.66247        10.94508         6.27711
   H      -17.52415         8.98597         4.81896
   H      -16.14874         6.81330         2.29319
   H      -17.51334         7.84126         2.79927
   H      -16.47658         7.05859         4.02651
   H      -12.56774        13.08268         3.08198
   H      -13.57138        14.52066         3.37761
   H      -14.22622        13.17394         2.41646
   H      -14.77003         9.31361        -0.35349
   H      -18.88563        12.73870         2.92463
   H      -20.31550         8.91879         0.05609
   H      -22.61697         9.30889         0.68079
   H      -24.30896        10.57766         1.94268
   H      -23.63294        12.46198         3.37818
   H      -21.25782        13.09309         3.55999
*
