# ORCA input file
# SCF done       -162.060529586925          0.000904198326
! CAM-B3LYP def2-SVP def2/J RIJCOSX Grid4 TightSCF
%maxcore 5000
%tddft
    Mode sTDDFT
    Ethresh 5.0
    maxcore 5000
end

%pal
  nprocs 6
  end
* xyz 0 1
   C        3.85126        -1.01436         2.52164
   C        3.74249         0.37210         2.42828
   C        4.70242         1.26911         3.15179
   O        5.06234         2.31965         2.70208
   O        5.15214         0.82562         4.33310
   C        2.76676         0.95524         1.60405
   C        2.61400         2.36211         1.51998
   N        2.39141         3.48085         1.41740
   C        1.89432         0.15372         0.85836
   C        2.01973        -1.21392         0.95613
   C        2.98166        -1.80706         1.79332
   C        2.82724        -3.26101         1.72780
   C        3.22188        -4.12433         2.72442
   C        3.99307        -3.71538         3.82636
   N        4.62463        -3.39454         4.73120
   C        2.78226        -5.45949         2.81686
   N        2.40352        -6.53455         2.95660
   C        1.92491        -3.54623         0.64594
   C        1.26676        -2.28308         0.24728
   O        0.34493        -2.14326        -0.52321
   C        1.65257        -4.70794        -0.03458
   C        2.42828        -5.86718        -0.14403
   C        1.99227        -7.09511        -0.63830
   C        2.98960        -8.05327        -0.64429
   C        4.24101        -7.55078        -0.19134
   S        4.15736        -5.90598         0.25092
   C        5.17915        -8.58757        -0.22285
   C        4.53904        -9.76479        -0.67519
   C        3.14669        -9.45533        -0.96517
   C        2.19640       -10.31458        -1.44298
   C        2.48269       -11.66688        -1.71618
   N        2.71514       -12.76732        -1.94230
   C        0.87508        -9.90096        -1.70660
   N       -0.20034        -9.57185        -1.93106
   C        5.37852       -10.86565        -0.70214
   C        6.67029       -10.55808        -0.28337
   S        6.83484        -8.85568         0.14610
   C        7.76539       -11.44559        -0.16823
   C        9.03040       -11.02632         0.20054
   C       10.12894       -11.85453         0.36321
   C        9.98361       -13.31442         0.27584
   C        8.85373       -13.94450        -0.10832
   S        7.39978       -13.13398        -0.52602
   C       11.24233       -13.84736         0.67029
   C       12.12248       -12.80568         0.96320
   C       13.39417       -13.27931         1.35657
   C       13.44225       -14.63660         1.35566
   S       11.95937       -15.39327         0.87431
   C       11.46416       -11.54552         0.73677
   C       12.13044       -10.31116         0.83840
   C       11.73665        -9.11162         0.30693
   C       12.44455        -7.89190         0.38581
   C       13.57780        -7.67598         1.15799
   C       14.15860        -6.39229         1.07394
   C       13.52733        -5.50027         0.23326
  Si       12.02995        -6.31273        -0.53859
   C       13.94943        -4.18200        -0.01040
   C       13.29520        -3.29845        -0.86595
   O       12.17954        -3.72964        -1.49662
   C       11.52919        -2.83360        -2.36930
   C       13.91976        -2.03872        -0.95042
   C       15.03470        -1.96517        -0.16875
   S       15.35399        -3.41377         0.68649
   H        4.63427        -1.46192         3.11572
   H        4.77601        -0.02277         4.60760
   H        1.14353         0.59761         0.22252
   H        0.74839        -4.68947        -0.63523
   H        0.97267        -7.25993        -0.93754
   H        5.08828       -11.85562        -1.00524
   H        9.13937        -9.96988         0.40403
   H        8.78542       -15.01775        -0.18860
   H       14.22800       -12.65819         1.62876
   H       14.27299       -15.26476         1.61136
   H       13.09439       -10.35787         1.32763
   H       10.83780        -9.08135        -0.29266
   H       14.01204        -8.42350         1.80450
   H       15.04498        -6.13483         1.63597
   H       12.12448        -6.48691        -1.98666
   H       10.75505        -5.73985        -0.11357
   H       10.67170        -3.37463        -2.76448
   H       12.18435        -2.53632        -3.19368
   H       11.18414        -1.94145        -1.83835
   H       13.57258        -1.22016        -1.55390
   H       15.69140        -1.12692        -0.04831
*
