# ORCA input file
# SCF done       -187.653239489361          0.001222494060
! CAM-B3LYP def2-SVP def2/J RIJCOSX Grid4 TightSCF
%maxcore 5000
%tddft
    Mode sTDDFT
    Ethresh 5.0
    maxcore 5000
end

%pal
  nprocs 6
  end
* xyz 0 1
   C       -5.77275        11.87499         0.39770
   C       -6.16234        11.59575        -0.86190
   C       -5.43183        10.41531        -1.31089
   C       -5.56467         9.88231        -2.58924
   N       -5.71389         9.46937        -3.65526
   C       -4.63841         9.97601        -0.28163
   C       -4.83586        10.85914         0.83805
   C       -4.26118        10.83417         2.09695
   C       -3.52851         9.74886         2.79874
   C       -2.91038        10.32109         3.89112
   C       -3.28546        11.69470         3.96251
   C       -4.13695        11.98869         2.91161
   C       -2.85374        12.59199         4.94758
   N       -2.49666        13.32372         5.75746
   C       -3.56038         8.35880         2.57176
   C       -4.42824         7.68835         1.76137
   C       -4.41098         6.29798         1.50890
   C       -5.16133         5.76774         0.47350
   C       -5.14976         4.44259         0.07696
   C       -4.39118         3.42599         0.80700
   C       -3.59944         3.70179         1.86503
   S       -3.36039         5.28342         2.49407
   C       -4.64121         2.20699         0.11345
   C       -5.44378         2.44679        -1.00817
   C       -5.71512         1.25501        -1.72083
   C       -5.12321         0.17831        -1.14385
   S       -4.21360         0.55498         0.28177
   C       -5.75964         3.84748        -1.05873
   C       -6.42684         4.58232        -2.05616
   C       -6.70276         4.15041        -3.31754
   C       -7.22868         4.98472        -4.33615
   C       -7.56910         6.31866        -4.23122
   C       -7.87494         6.80581        -5.54372
   C       -8.06371         8.10844        -5.73950
   N       -8.35972         9.26034        -5.77863
   C       -7.74400         5.69585        -6.45327
   C       -7.34899         4.59737        -5.74073
   C       -7.08083         3.25101        -6.20777
   C       -6.27010         2.81557        -7.35687
   C       -6.37467         1.39072        -7.41841
   C       -7.14395         0.96820        -6.36480
   C       -7.58462         2.12847        -5.62243
   C       -7.45290        -0.34888        -6.01354
   N       -7.69994        -1.42426        -5.69152
   C       -5.50593         3.56578        -8.22165
   C       -5.28344         4.93251        -8.05421
   C       -4.95242         5.86781        -9.01289
   C       -5.16377         7.22885        -8.70121
   C       -5.22566         8.23481        -9.61262
   C       -4.88262         8.04748       -11.01700
   C       -4.51640         6.85867       -11.53955
   S       -4.48585         5.38419       -10.64206
   C       -5.08708         9.32646       -11.62289
   C       -5.60060        10.23754       -10.69594
   C       -5.84197        11.50062       -11.28340
   C       -5.51859        11.51120       -12.60269
   S       -4.91346         9.99916       -13.18765
   C       -5.72604         9.58337        -9.41728
   C       -6.33955         9.97715        -8.25279
   C       -7.09934        11.13720        -8.06653
   C       -7.83742        11.39099        -6.94060
   C       -7.77486        10.55671        -5.67706
   C       -8.58653        11.38651        -4.70387
   C       -8.81569        10.95417        -3.39496
   N       -8.98287        10.58822        -2.31926
   C       -9.02606        12.51888        -5.29448
   C       -8.63937        12.55082        -6.68384
   C       -9.05713        13.50968        -7.59471
   C       -9.53006        14.86297        -7.29138
   C       -9.94887        15.42455        -8.46044
   C       -9.78417        14.45956        -9.52341
   C       -9.21680        13.32199        -9.00280
   C      -10.14103        14.66648       -10.85860
   N      -10.41997        14.83801       -11.96067
   C       -9.41356        15.53225        -6.01347
   C      -10.18815        16.53837        -5.62126
   H       -6.14498        12.66692         1.01772
   H       -6.88062        12.12057        -1.46226
   H       -3.91925         9.17969        -0.33186
   H       -2.29993         9.81454         4.61501
   H       -4.53754        12.95864         2.68949
   H       -2.85457         7.78030         3.15750
   H       -5.19433         8.24175         1.23757
   H       -5.76581         6.47133        -0.08314
   H       -3.02797         2.94623         2.38016
   H       -6.32392         1.17689        -2.60260
   H       -5.16343        -0.84277        -1.46894
   H       -6.65858         5.60905        -1.81066
   H       -6.43186         3.14593        -3.60626
   H       -7.57163         6.93879        -3.35645
   H       -7.94929         5.75213        -7.50623
   H       -5.88675         0.76925        -8.14587
   H       -8.25505         2.08468        -4.78315
   H       -5.09339         3.06949        -9.09286
   H       -5.52107         5.33768        -7.08177
   H       -5.39952         7.43164        -7.66564
   H       -4.25968         6.72803       -12.57819
   H       -6.22064        12.36806       -10.77486
   H       -5.60015        12.33041       -13.28953
   H       -6.30175         9.27808        -7.42969
   H       -7.13380        11.85689        -8.86746
   H       -6.73885        10.45779        -5.31131
   H       -9.64511        13.26205        -4.82534
   H      -10.31216        16.42384        -8.60586
   H       -9.06020        12.40546        -9.53920
   H       -8.61681        15.18718        -5.36605
   H      -10.99825        16.89923        -6.23106
   H      -10.04628        17.02612        -4.67243
*
