# ORCA input file
# SCF done       -181.647404443406          0.000343905407
! CAM-B3LYP def2-SVP def2/J RIJCOSX Grid4 TightSCF
%maxcore 5000
%tddft
    Mode sTDDFT
    Ethresh 5.0
    maxcore 5000
end

%pal
  nprocs 6
  end
* xyz 0 1
   C        1.77516        -1.93900        -1.04857
   C        2.75009        -1.00487        -0.74164
   C        3.67956        -1.31470         0.25388
   C        4.68518        -0.37169         0.58273
   N        5.49455         0.39428         0.84443
   C        3.63755        -2.54477         0.93736
   C        4.59375        -2.82975         1.94183
   N        5.35801        -3.08080         2.75665
   C        2.65386        -3.48452         0.62533
   C        1.74297        -3.16635        -0.35903
   C        0.62013        -3.98000        -0.86661
   O        0.31105        -5.09416        -0.48240
   C       -0.02313        -3.18052        -1.90984
   C        0.67783        -1.91493        -2.01920
   C        0.38542        -0.86369        -2.84646
   C        1.11696         0.34410        -2.88207
   N        1.67002         1.34631        -2.95797
   C       -0.67999        -0.81497        -3.77218
   N       -1.52397        -0.69468        -4.54091
   C       -1.10410        -3.57454        -2.66166
   C       -1.86658        -4.74779        -2.60960
   C       -2.96307        -4.94887        -3.46141
   C       -3.60710        -6.14453        -3.22169
   C       -2.99832        -6.88158        -2.17344
   S       -1.64188        -6.10442        -1.50142
   C       -3.74649        -8.06556        -1.98207
   C       -4.82493        -8.08057        -2.89092
   C       -4.76225        -6.88086        -3.71059
   C       -5.60855        -6.52900        -4.71979
   C       -6.70100        -7.34172        -5.09055
   N       -7.58676        -8.00816        -5.38340
   C       -5.44570        -5.33768        -5.45934
   N       -5.31387        -4.37284        -6.06352
   C       -5.64461        -9.19394        -2.74623
   C       -5.20446       -10.03750        -1.73468
   S       -3.74133        -9.43817        -0.96842
   C       -5.78742       -11.23507        -1.24966
   C       -6.99306       -11.71430        -1.64919
   C       -7.61402       -12.87591        -1.12709
   C       -7.12597       -13.80925        -0.22085
   C       -8.06841       -14.78485         0.08252
   C       -9.29133       -14.59754        -0.59288
   S       -9.26389       -13.23056        -1.61297
   C      -10.19042       -15.60564        -0.18168
   C       -9.53587       -16.44954         0.74231
   C       -8.18030       -15.96283         0.93263
   C       -7.21513       -16.48940         1.73847
   C       -7.43236       -17.64978         2.51263
   N       -7.60377       -18.59642         3.13537
   C       -5.93284       -15.90880         1.84126
   N       -4.89290       -15.43267         1.91847
   C      -10.35435       -17.46839         1.21230
   C      -11.64302       -17.38799         0.70149
   S      -11.80789       -16.05660        -0.44685
   C      -12.69946       -18.28044         0.97992
   C      -14.04077       -18.11029         0.80293
   C      -14.92606       -19.30079         0.70727
   O      -14.64600       -20.44326         0.97747
   C      -16.20037       -18.78546         0.15002
   C      -17.31529       -19.49299        -0.24614
   C      -18.39292       -18.78047        -0.77599
   C      -18.32414       -17.37954        -0.90111
   C      -17.19483       -16.67107        -0.48580
   C      -16.13353       -17.38172         0.04611
   C      -14.85469       -16.93249         0.59754
   C      -14.61611       -15.68089         1.10094
   C      -13.49432       -15.36908         1.89779
   N      -12.61530       -15.09552         2.58301
   C      -15.50392       -14.59404         0.96101
   N      -16.18605       -13.67785         0.85492
   C      -19.41910       -16.67548        -1.46152
   N      -20.29606       -16.09815        -1.91752
   C      -19.55733       -19.46855        -1.19537
   N      -20.49078       -20.04052        -1.53074
   H        2.81744        -0.05202        -1.24149
   H        2.60673        -4.43262         1.13917
   H       -1.45034        -2.88141        -3.41869
   H       -3.25048        -4.22507        -4.20365
   H       -6.51663        -9.39031        -3.34155
   H       -5.22921       -11.75822        -0.48639
   H       -7.56199       -11.17219        -2.39119
   H       -6.13390       -13.76989         0.18878
   H      -10.06300       -18.22026         1.92348
   H      -12.39970       -19.26854         1.31708
   H      -17.35390       -20.56734        -0.14935
   H      -17.17091       -15.59847        -0.59855
*
