# ORCA input file
# SCF done       -152.486838306047          0.000859696030
! CAM-B3LYP def2-SVP def2/J RIJCOSX Grid4 TightSCF
%maxcore 5000
%tddft
    Mode sTDDFT
    Ethresh 5.0
    maxcore 5000
end

%pal
  nprocs 6
  end
* xyz 0 1
   C       -1.48370        -0.32486         0.68819
   N       -0.47100        -1.08744         0.33551
   C       -0.08772        -1.97730         1.25691
   N       -0.66779        -2.11209         2.45553
   C       -1.67073        -1.29320         2.68714
   N       -2.12514        -0.37760         1.84578
   C        1.01200        -2.84406         0.95773
   C        1.76027        -2.89731        -0.20134
   C        2.75732        -3.86695        -0.11570
   C        2.74991        -4.54433         1.12330
   S        1.52317        -3.99172         2.17006
   C        3.80039        -5.49480         1.12583
   C        4.47142        -5.41936        -0.11209
   C        3.82968        -4.40449        -0.93569
   C        4.16091        -4.05147        -2.21013
   C        5.20924        -4.68568        -2.91243
   N        6.05085        -5.20945        -3.48779
   C        3.47046        -3.04458        -2.91837
   N        2.91535        -2.22812        -3.50074
   C        5.54248        -6.29742        -0.20036
   C        5.69721        -7.05017         0.95846
   S        4.47727        -6.66493         2.16687
   C        6.68678        -8.02693         1.25304
   C        7.78620        -8.33282         0.41136
   C        8.75662        -9.33250         0.78587
   N        9.77104        -9.61692        -0.03880
   C        9.90259        -8.97331        -1.17117
   C        8.96668        -7.94556        -1.52051
   N        7.95259        -7.66691        -0.74085
   C        9.15309        -7.21077        -2.72016
   N        9.36042        -6.63906        -3.68993
   C       10.97632        -9.30362        -2.03449
   N       11.83745        -9.55213        -2.74722
   C        8.70716       -10.05137         2.00388
   C        7.61133        -9.74530         2.84049
   C        6.63354        -8.75547         2.46292
   N        5.68976        -8.61796         3.39553
   S        5.99249        -9.62025         4.61264
   N        7.32930       -10.27890         4.03032
   C        9.71242       -10.99248         2.34138
   C        9.77811       -11.75756         3.50145
   C       10.91077       -12.55786         3.52919
   C       11.71713       -12.40287         2.38223
   S       11.07264       -11.27793         1.26820
   C       12.84685       -13.24686         2.51612
   C       12.75566       -13.93431         3.74694
   C       11.53486       -13.52545         4.42008
   C       11.06685       -13.94963         5.62878
   C       11.75648       -14.89577         6.41703
   N       12.30877       -15.66064         7.06813
   C        9.85656       -13.47094         6.17470
   N        8.87841       -13.08262         6.63008
   C       13.83846       -14.78343         3.96616
   C       14.73273       -14.73501         2.91496
   S       14.25265       -13.64438         1.63935
   C       15.96430       -15.45175         2.77039
   N       16.33894       -16.28903         3.74293
   C       17.48271       -16.90576         3.53313
   N       18.25634       -16.75975         2.46844
   C       17.79668       -15.90836         1.56440
   N       16.67225       -15.23231         1.65620
   H       -1.82067         0.40974        -0.03250
   H       -2.16356        -1.37459         3.64804
   H        1.56693        -2.25253        -1.03905
   H        6.19640        -6.40358        -1.04550
   H        9.02267       -11.70282         4.26358
   H       13.99639       -15.40862         4.82589
   H       17.81844       -17.59327         4.29946
   H       18.39559       -15.75380         0.67555
*
