# ORCA input file
# SCF done       -224.390076728456          0.000615643571
! CAM-B3LYP def2-SVP def2/J RIJCOSX Grid4 TightSCF
%maxcore 5000
%tddft
    Mode sTDDFT
    Ethresh 5.0
    maxcore 5000
end

%pal
  nprocs 6
  end
* xyz 0 1
   C      -10.86720        -4.10138       -11.89198
   C      -10.97689        -2.75011       -12.06462
   F      -11.44387        -2.25397       -13.21855
   C      -10.60141        -1.86290       -11.03638
   F      -10.71871        -0.54196       -11.23330
   C      -10.12104        -2.33949        -9.84898
   C       -9.99537        -3.72665        -9.64097
   C      -10.37555        -4.62515       -10.67944
   C      -10.25906        -6.02203       -10.49321
   C       -9.77309        -6.50344        -9.30652
   C       -9.38757        -5.59946        -8.28032
   C       -9.49462        -4.24691        -8.42686
   C       -8.87359        -6.35681        -7.12085
   O       -8.51324        -5.86559        -6.06953
   C       -8.88611        -7.77599        -7.53372
   C       -9.53946        -7.86290        -8.82771
   C       -9.94956        -9.00214        -9.47169
   C       -9.84305       -10.31713        -8.97093
   N       -9.82222       -11.41312        -8.62771
   C      -10.59709        -9.00557       -10.72485
   N      -11.12037        -9.07554       -11.74444
   C       -8.27365        -8.84854        -6.93067
   C       -7.60731        -8.96595        -5.70275
   C       -7.48920        -8.10561        -4.60868
   C       -6.71685        -8.63991        -3.60204
   C       -6.22455        -9.92381        -3.90099
   S       -6.74083       -10.48369        -5.42705
   C       -5.41171       -10.36457        -2.83922
   C       -5.38413        -9.36903        -1.84816
   C       -6.23451        -8.18583        -2.24502
   C       -7.40686        -7.98984        -1.27901
   C       -5.40211        -6.90534        -2.35192
   C       -4.57425        -9.70374        -0.78276
   C       -3.97356       -10.95075        -0.95928
   S       -4.43550       -11.72600        -2.46059
   C       -3.04752       -11.58926        -0.12312
   C       -2.41757       -12.81063        -0.39041
   C       -1.45838       -13.18393         0.60757
   N       -0.76218       -14.31502         0.51154
   C       -0.99505       -15.06891        -0.54282
   C       -0.23052       -16.33618        -0.64562
   O        0.57050       -16.68751         0.19542
   C       -0.51877       -17.14141        -1.84459
   C       -1.40062       -16.78493        -2.78442
   C       -2.19042       -15.54279        -2.73565
   O       -2.98143       -15.24118        -3.60452
   C       -1.94491       -14.69007        -1.54615
   N       -2.63980       -13.57522        -1.45829
   C       -1.35186       -12.25312         1.64857
   S       -2.45634       -10.93438         1.37889
   C       -0.46166       -12.33855         2.72742
   C       -0.34095       -11.47579         3.81726
   C        0.68229       -11.85543         4.66122
   C        1.35414       -13.00383         4.21108
   S        0.70707       -13.64401         2.75639
   C        2.40903       -13.28328         5.09996
   C        2.40512       -12.34180         6.13850
   C        1.29430       -11.33805         5.94174
   C        0.28778       -11.36986         7.09504
   C        1.86644        -9.92971         5.75411
   C        3.42151       -12.54831         7.05037
   C        4.25282       -13.60660         6.69167
   S        3.69433       -14.40343         5.22659
   C        5.37883       -14.05665         7.41176
   C        6.44162       -14.78397         6.96171
   C        7.27098       -15.56002         7.91969
   O        7.26005       -15.47360         9.12630
   C        8.05736       -16.49057         7.08190
   C        8.88766       -17.50240         7.46850
   C        9.51965       -18.28855         6.47849
   C        9.27252       -18.01326         5.10210
   C        9.90028       -18.80656         4.12099
   C       10.73730       -19.82241         4.48843
   C       10.98278       -20.09241         5.84951
   C       10.38739       -19.34251         6.82474
   F       11.80766       -21.09542         6.18113
   F       11.33478       -20.57425         3.55417
   C        8.41394       -16.95291         4.73129
   C        7.82162       -16.19896         5.70775
   C        6.93912       -15.03806         5.62839
   C        6.85334       -14.18625         4.55689
   C        6.23323       -12.92180         4.61971
   N        5.78092       -11.86666         4.64725
   C        7.46569       -14.43176         3.31192
   N        7.93796       -14.59255         2.27801
   H      -11.16031        -4.76681       -12.68897
   H       -9.83727        -1.64725        -9.07176
   H      -10.55081        -6.67439       -11.30005
   H       -9.19712        -3.58330        -7.62916
   H       -8.25805        -9.76505        -7.50966
   H       -7.95200        -7.13657        -4.59524
   H       -7.99631        -8.90102        -1.20849
   H       -8.04701        -7.18623        -1.63306
   H       -7.03652        -7.73579        -0.28911
   H       -4.56069        -7.05591        -3.02425
   H       -5.02174        -6.62336        -1.37343
   H       -6.01626        -6.09672        -2.73907
   H       -4.39165        -9.09950         0.08785
   H        0.04097       -18.06400        -1.91976
   H       -1.58241       -17.40730        -3.65026
   H       -0.98574       -10.62490         3.94646
   H       -0.11549       -12.37229         7.21868
   H       -0.53255       -10.68612         6.89253
   H        0.77236       -11.07183         8.02113
   H        2.60211        -9.92654         4.95367
   H        2.34960        -9.59960         6.66987
   H        1.07006        -9.23315         5.50474
   H        3.61049       -11.94685         7.92103
   H        5.37139       -13.85619         8.47920
   H        9.06118       -17.70148         8.51505
   H        9.72590       -18.61054         3.07457
   H       10.58562       -19.56229         7.86208
   H        8.23653       -16.76888         3.68361
*
