# ORCA input file
# SCF done       -194.003418693376          0.000351462953
! CAM-B3LYP def2-SVP def2/J RIJCOSX Grid4 TightSCF
%maxcore 5000
%tddft
    Mode sTDDFT
    Ethresh 5.0
    maxcore 5000
end

%pal
  nprocs 6
  end
* xyz 0 1
   C        7.34052         4.75480         0.54597
   C        7.62170         6.01638         0.97622
   S        9.27014         6.14502         1.46430
   C        9.59473         4.49645         1.09253
   C        8.47893         3.88609         0.61255
   C        8.10901         2.55190         0.15167
   O        8.81324         1.56289         0.11519
   C        6.65681         2.65000        -0.20887
   C        6.20504         4.01955         0.03145
   C        4.96777         4.54793        -0.20496
   C        4.68814         5.90458         0.06961
   N        4.45171         7.00498         0.28975
   C        3.86474         3.85019        -0.73901
   N        2.93303         3.34515        -1.17870
   C        5.89972         1.59670        -0.58752
   C        6.48146         0.29368        -0.82809
   N        6.01187        -0.75942        -0.19156
   N        6.59708        -1.91522        -0.19859
   C        7.79305        -2.10248        -0.72474
   C        8.35607        -1.08167        -1.53316
   C        7.61968         0.13740        -1.66384
   N        8.15452         0.96398        -2.55614
   S        9.48050         0.27734        -3.14854
   N        9.43656        -1.09226        -2.31063
   C        8.47988        -3.36685        -0.47597
   C        7.63300        -4.55649        -0.55746
   C        7.66757        -5.56839         0.40391
   C        6.82544        -6.67019         0.33624
   C        5.90849        -6.78077        -0.70428
   C        5.84389        -5.77899        -1.66825
   C        6.69341        -4.68432        -1.58329
   F        6.62759        -3.75369        -2.53836
   F        4.96978        -5.87762        -2.67057
   F        5.10039        -7.83791        -0.77642
   F        6.89599        -7.62550         1.26752
   F        8.52652        -5.49056         1.42664
   C        9.80219        -3.36417        -0.13443
   C       10.42138        -2.06624         0.22573
   C        9.89352        -1.28021         1.25066
   C       10.43453        -0.04173         1.57758
   C       11.51474         0.44668         0.85104
   C       12.06581        -0.32400        -0.16721
   C       11.53100        -1.57392        -0.45889
   F       12.08580        -2.29986        -1.43133
   F       13.10439         0.14353        -0.86748
   F       12.02013         1.65020         1.13007
   F        9.92945         0.67355         2.58167
   F        8.85739        -1.73042         1.96151
   C       10.66219        -4.51949        -0.07852
   C       11.78352        -4.56124         0.74399
   C       12.65499        -5.64288         0.82743
   C       12.50407        -6.80309         0.06877
   C       11.37862        -6.78784        -0.81033
   C       10.46388        -5.67574        -0.87884
   N        9.55477        -5.97791        -1.78497
   O        9.87487        -7.19060        -2.24694
   N       10.96415        -7.69046        -1.67171
   C       13.32019        -7.95569         0.08071
   C       14.42446        -8.24519         0.84120
   C       15.14724        -9.46799         0.75268
   C       16.20090        -9.56786         1.60284
   C       16.38449        -8.42747         2.42311
   S       15.16131        -7.22441         2.05866
   C       17.34610        -8.22180         3.38441
   C       18.38034        -9.12393         3.77147
   C       19.18212        -8.65952         4.75305
   C       18.84397        -7.34508         5.22214
   S       17.43817        -6.75079         4.32242
   C       19.45296        -6.63474         6.18002
   H        6.98120         6.87287         1.04453
   H       10.57310         4.08702         1.24882
   H        4.82451         1.67554        -0.66876
   H       11.97916        -3.71325         1.38447
   H       13.48079        -5.56665         1.51577
   H       13.01266        -8.72740        -0.61368
   H       14.85243       -10.23335         0.05703
   H       16.84782       -10.42400         1.66577
   H       18.48719       -10.08659         3.30447
   H       20.01258        -9.19573         5.17640
   H       20.30402        -7.03440         6.70274
   H       19.11642        -5.65245         6.45712
*
