# ORCA input file
# SCF done       -220.547822379877          0.000577799257
! CAM-B3LYP def2-SVP def2/J RIJCOSX Grid4 TightSCF
%maxcore 5000
%tddft
    Mode sTDDFT
    Ethresh 5.0
    maxcore 5000
end

%pal
  nprocs 6
  end
* xyz 0 1
   C        4.92708        -5.73289        -1.85067
   C        3.75035        -6.01590        -2.47175
   S        3.48309        -7.71917        -2.53538
   C        4.96662        -8.05766        -1.72001
   C        5.62379        -6.91012        -1.41955
   C        6.88017        -6.52099        -0.75922
   O        7.72385        -7.24214        -0.26977
   C        6.89294        -5.03822        -0.82278
   C        5.70103        -4.56118        -1.48714
   C        5.32722        -3.26245        -1.74514
   C        4.11894        -2.97521        -2.41201
   N        3.13881        -2.72958        -2.95665
   C        6.04846        -2.10332        -1.40380
   N        6.59168        -1.12125        -1.15199
   C        7.88543        -4.22823        -0.32682
   C        9.05610        -4.60066         0.33280
   C        9.93272        -3.62520         0.77019
   C       11.15652        -3.75976         1.46616
   C       11.76835        -2.57252         1.75842
   C       11.05468        -1.44478         1.30324
   S        9.58987        -1.93127         0.49283
   C       11.31961        -0.08792         1.40172
   C       12.37402         0.61654         2.01828
   C       12.25511         1.97204         1.91488
   C       11.10099         2.40905         1.21509
   S       10.17959         1.02100         0.68331
   C       10.76720         3.71076         0.92208
   C        9.60856         4.14126         0.23821
   C        8.44701         3.22288         0.14678
   C        7.94316         2.80902        -1.08590
   C        6.78458         2.04685        -1.18535
   C        6.11081         1.66741        -0.02744
   C        6.62256         2.02993         1.21581
   C        7.77497         2.80131         1.29290
   F        8.23236         3.17258         2.49314
   F        5.98892         1.65992         2.33043
   F        4.96862         0.99276        -0.09994
   F        6.30024         1.72259        -2.38141
   F        8.56636         3.19054        -2.20466
   C        9.49443         5.39369        -0.33992
   C       10.66503         6.26658        -0.49911
   C       11.88317         5.80509        -1.01069
   C       12.97315         6.64922        -1.18802
   C       12.86988         7.99910        -0.86404
   C       11.66513         8.48925        -0.36648
   C       10.58779         7.63026        -0.19252
   F        9.45462         8.13208         0.30738
   F       11.54920         9.78154        -0.05571
   F       13.91017         8.81357        -1.03170
   F       14.11815         6.16783        -1.67500
   F       12.01387         4.52730        -1.37724
   C        8.26683         5.89621        -0.89945
   C        8.16476         6.68375        -2.01831
   C        6.83277         6.90980        -2.43263
   C        5.90715         6.27654        -1.57728
   S        6.69298         5.50307        -0.23372
   C        4.54038         6.16700        -1.81052
   O        3.87468         5.49452        -0.85251
   C        2.48848         5.24232        -0.92736
   C        4.06410         6.73536        -3.01350
   C        4.99411         7.44252        -3.83762
   C        6.34545         7.56499        -3.58042
   O        7.14840         8.21931        -4.47450
   C        7.79237         9.38280        -3.98626
   S        4.25080         8.07982        -5.27287
   C        2.71725         7.36422        -4.81640
   C        2.78446         6.71442        -3.60779
   C        1.59233         7.44953        -5.67362
   C        1.57457         8.20187        -6.93438
   N        0.46431         8.11866        -7.59948
   C       -0.34537         7.30764        -6.85707
   C        0.33614         6.87882        -5.61500
   C       -0.53084         6.01290        -4.86381
   S       -0.28854         5.28010        -3.41253
   C       -1.72649         5.90326        -5.67508
   C       -1.57974         6.72595        -6.90168
   N       -2.69081         6.61717        -7.67863
   C       -3.48176         5.80049        -7.03414
   C       -2.94192         5.31048        -5.77625
   H        3.02329        -5.35187        -2.89456
   H        5.24972        -9.07149        -1.51992
   H        7.74473        -3.16248        -0.45882
   H        9.27494        -5.64361         0.50613
   H       11.54623        -4.72626         1.73243
   H       12.70316        -2.48375         2.28283
   H       13.18155         0.11296         2.51880
   H       12.96008         2.67437         2.32312
   H       11.47886         4.46822         1.22232
   H        9.01995         7.00249        -2.58809
   H        2.24609         4.72335        -0.00099
   H        2.24312         4.59558        -1.77232
   H        1.91340         6.16932        -0.98125
   H        8.29560         9.20604        -3.03268
   H        7.06961        10.19587        -3.85918
   H        8.52196         9.66246        -4.74347
   H        1.91501         6.22999        -3.20556
   H        2.40033         8.78684        -7.30216
   H       -4.44433         5.54162        -7.44003
   H       -3.43290         4.63003        -5.10878
*
