# ORCA input file
# SCF done       -181.523813344367          0.000978204982
! CAM-B3LYP def2-SVP def2/J RIJCOSX Grid4 TightSCF
%maxcore 5000
%tddft
    Mode sTDDFT
    Ethresh 5.0
    maxcore 5000
end

%pal
  nprocs 6
  end
* xyz 0 1
   C       -4.25685        -1.65520        -1.55260
   C       -4.83981        -2.73648        -0.95028
   C       -4.56139        -4.07931        -1.28666
   N       -4.37665        -5.19024        -1.50642
   C       -5.78952        -2.67865         0.09219
   N       -6.55941        -2.71549         0.94299
   C       -3.27768        -1.70417        -2.62777
   C       -2.89464        -0.38177        -2.96868
   C       -1.97494        -0.10708        -3.95260
   C       -1.41350        -1.18486        -4.64224
   C       -1.80351        -2.50267        -4.29783
   C       -2.72631        -2.78179        -3.29837
   S       -0.98292        -3.67667        -5.27786
   C       -0.14486        -2.42182        -6.12219
   C       -0.45797        -1.17825        -5.69667
   C       -3.61372         0.57781        -2.11689
   O       -3.44163         1.77375        -2.06132
   C       -4.51909        -0.24957        -1.25936
   C       -5.35376         0.25750        -0.32804
   C       -5.65969         1.66954        -0.18707
   C       -5.66120         2.27314         1.06962
   C       -5.91797         3.62166         1.19587
   F       -5.84775         4.15426         2.43303
   C       -6.21151         4.43925         0.10150
   C       -6.26716         3.81835        -1.14639
   C       -5.99755         2.47489        -1.27909
   F       -6.13392         1.91494        -2.49459
   C       -6.42941         5.88423         0.23070
   C       -7.17348         6.41083         1.28985
   C       -7.33252         7.77425         1.38539
   C       -6.75263         8.62889         0.43578
   C       -6.01684         8.11215        -0.62004
   C       -5.86348         6.74291        -0.71514
   C       -7.08316         9.99485         0.78519
   C       -7.86712         9.98276         1.95380
   C       -8.03769         8.56931         2.46298
   C       -9.51488         8.17773         2.60811
   C      -10.27383         8.28240         1.29033
   C       -7.25091         8.33498         3.77495
   C       -7.69213         9.16482         4.97271
   C       -8.36858        11.15693         2.46084
   C       -8.04527        12.36715         1.82804
   C       -7.24472        12.36910         0.68216
   C       -6.77094        11.18790         0.14972
   C       -8.53844        13.59598         2.38809
   N       -9.28834        13.66625         3.44349
   C       -9.57206        14.93406         3.75172
   C       -9.02748        15.91754         2.91491
   S       -8.11331        15.17279         1.66674
   N       -9.29549        17.18714         3.22664
   C      -10.04203        17.24998         4.29011
   S      -10.48404        15.68253         5.00448
   C      -10.47333        18.47493         4.86815
   C      -10.12701        19.71902         4.41851
   C      -10.68258        20.77671         5.18495
   C      -11.47714        20.25992         6.24299
   S      -11.51412        18.52050         6.26717
   C      -12.16967        21.01039         7.18525
   O      -12.85400        20.25073         8.08526
   C      -13.61943        20.83534         9.10691
   C      -12.06872        22.40661         7.08087
   C      -11.27402        22.92324         6.02705
   C      -10.58178        22.17506         5.08102
   O       -9.89649        22.92776         4.18086
   C       -9.13180        22.33779         3.15948
   S      -11.23443        24.66287         6.01838
   C      -12.26414        24.69879         7.40277
   C      -12.62214        23.47806         7.85182
   H       -1.70379         0.91108        -4.18451
   H       -2.98672        -3.80218        -3.07253
   H        0.54245        -2.69756        -6.89834
   H       -0.03565        -0.27801        -6.10476
   H       -5.83880        -0.39684         0.38435
   H       -5.41841         1.69711         1.94910
   H       -6.53343         4.38618        -2.02366
   H       -7.63000         5.75106         2.01115
   H       -5.56484         8.76496        -1.35124
   H       -5.27002         6.32497        -1.51442
   H       -9.98617         8.83305         3.34092
   H       -9.57268         7.15371         2.98265
   H      -10.23914         9.30084         0.90965
   H      -11.31533         8.00496         1.43467
   H       -9.84188         7.62176         0.54175
   H       -6.19692         8.54284         3.57318
   H       -7.33298         7.27488         4.02418
   H       -7.54083        10.22488         4.79052
   H       -7.09842         8.88319         5.83952
   H       -8.73775         8.99329         5.21215
   H       -9.01059        11.18854         3.32571
   H       -7.00694        13.31084         0.20920
   H       -6.16881        11.19443        -0.74602
   H       -9.48911        19.81799         3.56270
   H      -14.05140        19.99736         9.65314
   H      -14.42699        21.45227         8.70229
   H      -12.99902        21.42451         9.78850
   H       -8.70110        23.17376         2.60903
   H       -9.75369        21.74495         2.48297
   H       -8.32491        21.72179         3.56606
   H      -12.54994        25.64797         7.81203
   H      -13.25964        23.35762         8.70607
*
