# ORCA input file
# SCF done       -139.357375767743          0.000646895503
! CAM-B3LYP def2-SVP def2/J RIJCOSX Grid4 TightSCF
%maxcore 5000
%tddft
    Mode sTDDFT
    Ethresh 5.0
    maxcore 5000
end

%pal
  nprocs 6
  end
* xyz 0 1
   C        1.05884         0.79457        -2.41967
   N        0.38763         0.18879        -3.35220
   N       -0.04538        -1.04932        -3.23429
   C        0.15118        -1.78677        -2.16282
   C        0.87909        -1.23003        -1.06392
   C        1.35506         0.12167        -1.20781
   N        1.99714         0.42957        -0.09696
   O        1.92625        -0.64709         0.67748
   N        1.26166        -1.65837         0.12094
   C       -0.36842        -3.11709        -2.14518
   C       -0.29827        -4.02836        -1.12609
   C       -0.92174        -5.25530        -1.44477
   C       -1.47094        -5.24550        -2.75840
   S       -1.20566        -3.71947        -3.55477
   C       -2.12209        -6.33901        -3.28828
   C       -2.23833        -7.48049        -2.49722
   C       -1.69373        -7.48480        -1.18268
   C       -1.04217        -6.39858        -0.64959
   S       -1.96588        -9.01420        -0.39094
   C       -2.79254        -9.63398        -1.80979
   C       -2.85174        -8.71616        -2.81789
   C       -3.30525       -10.96473        -1.81069
   C       -3.26994       -11.87577        -0.79595
   C       -3.86812       -13.11663        -1.12759
   C       -4.36926       -13.12554        -2.45679
   S       -4.08940       -11.59868        -3.24824
   C       -4.98767       -14.22489        -3.00823
   C       -5.12056       -15.36409        -2.21469
   C       -4.62603       -15.35283        -0.88305
   C       -4.00509       -14.25435        -0.33257
   S       -4.91284       -16.87732        -0.08936
   C       -5.67994       -17.51744        -1.53336
   C       -5.70889       -16.60854        -2.55024
   C       -6.18445       -18.85132        -1.53850
   C       -6.21090       -19.73793        -0.50172
   C       -6.78723       -20.98730        -0.83774
   C       -7.20455       -21.02986        -2.19738
   S       -6.87481       -19.52123        -3.00682
   C       -7.78972       -22.14073        -2.75606
   C       -7.97814       -23.25933        -1.93918
   C       -7.56746       -23.21780        -0.57655
   C       -6.97653       -22.10202        -0.02311
   S       -7.90966       -24.71543         0.24400
   C       -8.58802       -25.37688        -1.22316
   C       -8.55406       -24.50421        -2.27732
   C       -9.10328       -26.70888        -1.20847
   N       -9.05966       -27.38652        -0.08177
   N       -9.50901       -28.61824         0.04181
   C      -10.03587       -29.28048        -0.94365
   C      -10.14805       -28.67957        -2.22241
   C       -9.66316       -27.33133        -2.36885
   N       -9.86374       -26.97422        -3.62033
   O      -10.43288       -28.02298        -4.21207
   N      -10.61415       -29.05653        -3.39783
   H        1.37106         1.80937        -2.60661
   H        0.18315        -3.81917        -0.18733
   H       -2.53090        -6.31840        -4.28566
   H       -0.63305        -6.41838         0.34786
   H       -3.32150        -8.91876        -3.76423
   H       -2.82808       -11.66540         0.16220
   H       -5.35948       -14.21326        -4.02032
   H       -3.63368       -14.26582         0.67967
   H       -6.14107       -16.82232        -3.51204
   H       -5.83117       -19.50237         0.47683
   H       -8.09780       -22.15797        -3.78919
   H       -6.66895       -22.08544         1.00994
   H       -8.93064       -24.75236        -3.25370
   H      -10.37612       -30.28431        -0.74655
*
