# ORCA input file
# SCF done       -198.942813128171          0.000582697168
! CAM-B3LYP def2-SVP def2/J RIJCOSX Grid4 TightSCF
%maxcore 5000
%tddft
    Mode sTDDFT
    Ethresh 5.0
    maxcore 5000
end

%pal
  nprocs 6
  end
* xyz 0 1
   C       -0.35914         4.00453        -0.73649
   C        0.68395         4.75291        -1.21796
   C        0.75915         6.15652        -1.11910
   N        0.88134         7.29598        -1.05385
   C        1.75474         4.20344        -1.95397
   N        2.61396         3.80049        -2.60026
   C       -1.62739         4.54767        -0.25266
   C       -2.61627         3.55200        -0.36801
   C       -3.92880         3.79809        -0.02666
   C       -4.25959         5.06659         0.45079
   C       -3.27522         6.05117         0.58731
   C       -1.95343         5.80148         0.23607
   C       -3.62986         7.38444         1.19099
   O       -3.61253         7.59588         2.37343
   O       -3.85995         8.28904         0.24672
   C       -4.25151         9.57775         0.70444
   C       -5.65403         5.42766         0.81490
   O       -6.01559         6.55637         1.04276
   O       -6.46491         4.36933         0.85526
   C       -7.81711         4.63798         1.19946
   C       -1.99839         2.29898        -0.86601
   O       -2.54814         1.25591        -1.13436
   C       -0.54199         2.58141        -0.90769
   C        0.35821         1.55949        -1.00736
   C        1.71867         1.55770        -0.63965
   C        2.69604         0.66899        -1.07348
   C        3.95105         0.91599        -0.54351
   C        3.93325         1.98215         0.35690
   S        2.37800         2.68904         0.52476
   C        5.15008         2.35177         0.96683
   C        6.30039         1.65541         0.60324
  Ge        5.81086         0.27555        -0.72073
   C        6.08410        -1.57440        -0.05857
   C        6.55143         0.62548        -2.52328
   C        7.43118         2.14660         1.24452
   C        7.16301         3.20308         2.09892
   S        5.46295         3.60056         2.10860
   C        8.08705         3.95213         2.88719
   C        7.69869         4.96206         3.75415
   C        8.59856         5.72762         4.49626
   C        9.97311         5.56545         4.43321
   C       10.42264         4.52676         3.57218
   C        9.49011         3.72401         2.81436
   N       10.19947         2.85387         2.12471
   O       11.47616         3.08775         2.42389
   N       11.63187         4.08703         3.28895
   C       10.88749         6.39347         5.15511
   C       12.25300         6.40624         5.08615
   C       12.85654         7.39341         5.89348
   C       11.91179         8.15960         6.62761
   S       10.28746         7.60969         6.26168
   C       12.30848         9.18458         7.46827
   O       11.55198         9.99484         8.24398
   C       10.15400         9.83229         8.29652
   C       13.70083         9.44118         7.53057
   C       14.64627         8.68287         6.79093
   C       14.24802         7.63981         5.96953
   O       15.00852         6.82035         5.21425
   C       16.41099         6.96398         5.18962
   S       16.26492         9.29060         7.08043
   C       15.66647        10.52234         8.16128
   C       14.29964        10.45906         8.29341
   C       16.53767        11.45339         8.77912
   C       16.10902        12.48556         9.72907
   N       17.06611        13.24847        10.16482
   C       18.19956        12.80068         9.55090
   C       17.89893        11.65623         8.67087
   C       19.10210        11.20462         8.02707
   S       19.30832         9.96814         6.96572
   C       20.13088        12.09662         8.52226
   C       19.53847        13.07314         9.46799
   N       20.49254        13.91955         9.93408
   C       21.60226        13.54027         9.35097
   C       21.45046        12.40999         8.45472
   H       -4.68131         3.03244        -0.12920
   H       -1.20950         6.57216         0.36113
   H       -4.26428        10.22069        -0.17159
   H       -3.54255         9.94731         1.44786
   H       -5.24388         9.51729         1.15442
   H       -8.31961         3.67499         1.22859
   H       -8.27554         5.28886         0.45239
   H       -7.86862         5.13004         2.17248
   H       -0.04535         0.60962        -1.34459
   H        2.48353        -0.10347        -1.79198
   H        5.61681        -1.70353         0.91241
   H        7.14541        -1.78121         0.03467
   H        5.65233        -2.28815        -0.75280
   H        6.28314         1.62671        -2.84587
   H        6.15381        -0.08944        -3.23698
   H        7.63345         0.53785        -2.50883
   H        8.42852         1.76848         1.10783
   H        6.64442         5.17476         3.85507
   H        8.20198         6.49770         5.14197
   H       12.81311         5.73353         4.46391
   H        9.80503        10.57781         9.00969
   H        9.87681         8.83611         8.65032
   H        9.68920        10.01700         7.32479
   H       16.85118         6.81767         6.17880
   H       16.71249         7.93887         4.79933
   H       16.76578         6.18287         4.51897
   H       13.72344        11.12519         8.90768
   H       15.09960        12.63440        10.06933
   H       22.52496        14.05614         9.55276
   H       22.23517        11.95412         7.88401
*
