# ORCA input file
# SCF done       -180.554890430794          0.000776118465
! CAM-B3LYP def2-SVP def2/J RIJCOSX Grid4 TightSCF
%maxcore 5000
%tddft
    Mode sTDDFT
    Ethresh 5.0
    maxcore 5000
end

%pal
  nprocs 6
  end
* xyz 0 1
   C        0.86544         4.48069        -0.72475
   C        1.62149         3.97379        -1.74669
   C        1.73200         4.56951        -3.02030
   N        1.86885         5.01007        -4.07107
   C        2.31204         2.74702        -1.67199
   N        2.86476         1.74090        -1.66698
   C       -0.07038         5.59745        -0.84317
   C       -0.98469         5.54400         0.22563
   C       -2.00547         6.46400         0.34780
   C       -2.11946         7.46107        -0.61815
   C       -1.19558         7.53842        -1.66621
   C       -0.16931         6.60336        -1.78834
   C       -1.24869         8.68076        -2.62869
   O       -1.47977         9.82203        -2.32261
   O       -0.96171         8.27584        -3.86521
   C       -0.94555         9.27676        -4.87373
   C       -3.24834         8.43592        -0.51260
   O       -3.58363         8.96911         0.51053
   O       -3.86678         8.57824        -1.68694
   C       -4.90797         9.54476        -1.74361
   C       -0.63993         4.40547         1.10822
   O       -1.24034         4.00575         2.07680
   C        0.64463         3.87470         0.56896
   C        1.38855         3.04058         1.34343
   C        2.76726         2.69159         1.25003
   C        3.26457         1.54792         1.86355
   C        4.59867         1.15101         1.79592
   C        5.58723         1.88374         1.14834
   C        5.13948         3.10828         0.56747
   C        3.74833         3.49620         0.60978
   N        3.64997         4.67255         0.02427
   O        4.88258         5.00197        -0.36396
   N        5.78518         4.07734        -0.04867
   C        6.95338         1.44619         1.07023
   C        7.93921         2.16949         0.40149
   C        9.26691         1.76559         0.29872
   C        9.74264         0.58391         0.85836
   C        8.77687        -0.18986         1.55523
   C        7.39948         0.22966         1.66564
   N        6.78073        -0.69677         2.37204
   O        7.69378        -1.62088         2.67769
   N        8.89920        -1.33209         2.19479
   C       11.09016         0.16854         0.74921
   S       11.63611        -1.37634         1.45219
   C       13.19796        -1.00850         0.85745
   C       13.19068         0.23307         0.18713
   N       12.02880         0.85416         0.14043
   C       14.55342         0.56673        -0.33135
   C       15.33398        -0.63166         0.12255
   C       14.50337        -1.52679         0.81079
   S       15.34910        -2.92229         1.35030
   C       16.83771        -2.30530         0.65219
   C       16.64409        -1.07218         0.03736
   C       18.05589        -3.01636         0.74206
   C       18.18800        -4.23145         1.33631
   C       19.37173        -5.00435         1.47020
   C       20.64351        -4.58566         1.15566
   C       21.69728        -5.57310         1.37849
   O       22.98927        -5.31240         1.04060
   C       23.15725        -4.17769         0.21692
   C       22.31981        -3.01796         0.74019
   O       20.94378        -3.34535         0.69431
   C       21.30837        -6.74230         1.93643
  Si       19.47033        -6.74065         2.18700
   C       18.91438        -6.79120         3.97668
   C       18.56331        -8.01658         1.15568
   H       -2.70442         6.41480         1.16862
   H        0.53507         6.69206        -2.59942
   H       -0.38698        10.15033        -4.53176
   H       -1.96590         9.58126        -5.11621
   H       -0.46798         8.82629        -5.74022
   H       -4.47131        10.53369        -1.90036
   H       -5.47505         9.54358        -0.81018
   H       -5.54201         9.27053        -2.58402
   H        0.86242         2.62989         2.20059
   H        2.56967         0.90791         2.38739
   H        4.88262         0.22331         2.26690
   H        7.65140         3.09815        -0.06522
   H        9.96876         2.38339        -0.23849
   H       14.93246         1.49590         0.09816
   H       14.55726         0.67746        -1.41721
   H       17.44425        -0.54054        -0.44534
   H       18.91480        -2.53817         0.29658
   H       17.29470        -4.68680         1.74878
   H       24.22141        -3.93753         0.23546
   H       22.85245        -4.41501        -0.81225
   H       22.44414        -2.12709         0.12242
   H       22.61035        -2.79137         1.77511
   H       22.03875        -7.51051         2.12045
   H       19.41935        -6.04481         4.58651
   H       19.11080        -7.76068         4.42963
   H       17.84542        -6.61008         4.07041
   H       18.86343        -7.98997         0.11010
   H       17.48627        -7.86339         1.18257
   H       18.74730        -9.02671         1.51528
*
