# ORCA input file
# SCF done       -190.887001534273          0.000256521093
! CAM-B3LYP def2-SVP def2/J RIJCOSX Grid4 TightSCF
%maxcore 5000
%tddft
    Mode sTDDFT
    Ethresh 5.0
    maxcore 5000
end

%pal
  nprocs 6
  end
* xyz 0 1
   C      -12.73841        -6.19849        -1.53403
   O      -11.55504        -6.25601        -1.28455
   C      -13.58327        -4.98497        -1.50186
   C      -14.83910        -5.26628        -2.06744
   C      -15.78932        -4.25823        -2.15732
   C      -15.47138        -2.99524        -1.68177
   C      -14.22304        -2.74066        -1.12886
   C      -13.25410        -3.73027        -1.03344
  Br      -13.83340        -0.99490        -0.49065
   C      -14.87522        -6.67107        -2.46644
   C      -15.94067        -7.30340        -3.05198
   C      -17.15358        -6.66571        -3.38895
   N      -18.16018        -6.20610        -3.69401
   C      -15.98425        -8.66729        -3.41032
   N      -16.09971        -9.76500        -3.72746
   C      -13.60735        -7.26734        -2.08869
   C      -13.20103        -8.54626        -2.32699
   C      -12.03551        -9.16176        -1.78195
   C      -11.33066       -10.13582        -2.48044
   C      -10.14764       -10.70251        -2.01794
   C       -9.57066       -10.39588        -0.78718
   C      -10.32723        -9.48784         0.01662
   C      -11.53834        -8.87941        -0.48099
   N      -12.04617        -8.15877         0.49601
   O      -11.21720        -8.27974         1.52593
   N      -10.17298        -9.07275         1.25839
   C       -8.32797       -10.94912        -0.34806
   C       -7.77625       -10.64191         0.87664
   C       -6.57420       -11.13618         1.36082
   C       -5.75140       -12.06293         0.58240
   C       -6.08812       -12.50625        -0.64857
   S       -7.52150       -12.04726        -1.46987
   C       -4.62190       -12.33471         1.40091
   C       -4.72239       -11.63419         2.60992
   C       -3.60789       -11.88178         3.44513
   C       -2.72373       -12.73512         2.86744
   S       -3.19332       -13.27784         1.29210
   C       -5.94448       -10.87675         2.60197
   C       -6.49063       -10.02498         3.58562
   C       -5.97295        -9.75151         4.81142
   C       -6.59079        -8.88499         5.75087
   C       -7.74662        -8.15653         5.63067
   C       -8.09099        -7.38908         6.76702
   C       -7.12722        -7.55637         7.82068
   S       -5.85120        -8.64909         7.31345
   C       -7.22060        -6.92361         9.04575
   O       -6.39728        -6.99018        10.11903
   C       -5.33667        -7.91586        10.16924
   C       -8.33855        -6.07407         9.22722
   C       -9.28171        -5.90373         8.19513
   C       -9.19937        -6.53739         6.96035
   O      -10.21688        -6.22344         6.12264
   C      -10.35934        -6.76595         4.83209
   S      -10.55611        -4.82553         8.66279
   C       -9.85095        -4.64287        10.26115
   C       -8.67921        -5.35434        10.38375
   C      -10.47015        -3.78070        11.19526
   C      -10.29832        -3.70611        12.54529
   C      -10.71118        -2.46429        13.25252
   O      -11.39371        -1.56863        12.81541
   C      -10.05942        -2.54285        14.57999
   C       -9.41513        -3.78628        14.71288
   C       -9.67628        -4.58288        13.51431
   C       -9.57602        -5.94800        13.44651
   C       -9.02371        -6.74761        14.46774
   N       -8.56250        -7.44172        15.25724
   C      -10.08392        -6.72843        12.38768
   N      -10.51569        -7.42081        11.58081
   C       -8.70414        -4.07199        15.86895
   C       -8.65429        -3.11813        16.87414
   C       -9.30997        -1.90253        16.72850
   C      -10.02293        -1.59146        15.57819
  Br       -9.22147        -0.63223        18.13806
   H      -16.76218        -4.43161        -2.58676
   H      -16.19937        -2.20090        -1.74290
   H      -12.28163        -3.53808        -0.60758
   H      -13.77768        -9.16448        -3.00326
   H      -11.69070       -10.42708        -3.45634
   H       -9.64524       -11.41191        -2.65864
   H       -8.34824        -9.96186         1.49060
   H       -5.47311       -13.19026        -1.21185
   H       -3.44960       -11.46057         4.42044
   H       -1.79805       -13.09299         3.27395
   H       -7.42637        -9.55671         3.31508
   H       -5.04726       -10.20742         5.12632
   H       -8.32378        -8.18690         4.72911
   H       -4.56245        -7.68725         9.43211
   H       -5.68876        -8.94052        10.02838
   H       -4.91857        -7.81546        11.17014
   H       -9.53137        -6.47871         4.17820
   H      -11.27959        -6.33072         4.44391
   H      -10.46835        -7.85331         4.85758
   H       -8.04795        -5.33282        11.25322
   H      -11.12659        -3.02313        10.77815
   H       -8.18453        -5.00759        15.99720
   H       -8.10208        -3.32069        17.77896
   H      -10.53120        -0.64710        15.46037
*
