# ORCA input file
# SCF done       -191.052221730092          0.000718553924
! CAM-B3LYP def2-SVP def2/J RIJCOSX Grid4 TightSCF
%maxcore 5000
%tddft
    Mode sTDDFT
    Ethresh 5.0
    maxcore 5000
end

%pal
  nprocs 6
  end
* xyz 0 1
   C       -7.60129        -4.46623         9.54849
   O       -7.37206        -4.66923         8.37775
   C       -7.07412        -3.35303        10.36818
   C       -7.74985        -3.31094        11.60015
   C       -7.42129        -2.33152        12.52748
   C       -6.42743        -1.41826        12.21128
   C       -5.77603        -1.47773        10.98615
   C       -6.09129        -2.44308        10.03968
  Br       -4.41914        -0.20648        10.60037
   C       -8.72271        -4.39981        11.64529
   C       -9.56836        -4.66642        12.69018
   C       -9.64362        -3.89191        13.86747
   N       -9.76242        -3.30391        14.84619
   C      -10.48736        -5.73542        12.74557
   N      -11.25510        -6.57994        12.87216
   C       -8.58563        -5.16043        10.41726
   C       -9.31461        -6.24982        10.04431
   C       -9.01171        -7.12310         8.95833
   C      -10.00983        -7.81781         8.28099
   C       -9.76805        -8.67065         7.20801
   C       -8.49022        -8.95108         6.73176
   C       -7.43187        -8.31598         7.44555
   C       -7.68478        -7.41788         8.54245
   N       -6.51381        -7.07442         9.03992
   O       -5.59524        -7.68584         8.30402
   N       -6.12352        -8.43766         7.33525
   C       -8.21299        -9.83356         5.65312
   N       -6.92232       -10.06214         5.23228
   C       -6.95223       -10.96590         4.22457
   C       -6.16254       -11.68435         3.33656
   C       -7.04591       -12.47490         2.58530
   N       -8.34209       -12.23910         3.00016
   C       -8.31530       -11.31922         3.99790
   C       -9.10403       -10.60652         4.88722
   C       -6.77281       -13.41914         1.56964
   C       -5.54407       -13.67058         1.04767
   C       -5.30219       -14.65048         0.05974
   S       -6.55600       -15.73748        -0.45817
   C       -4.10758       -14.90502        -0.61940
   C       -2.85513       -14.16889        -0.35933
   O       -2.74931       -13.25754         0.44618
   C       -1.74830       -14.65589        -1.16429
   C       -0.43392       -14.24268        -1.18972
   N        0.23301       -14.97763        -2.11097
   C        1.64660       -14.89157        -2.37940
   C        2.43213       -15.85537        -1.49241
   C       -0.61415       -15.86566        -2.68094
   C       -1.86453       -15.70132        -2.12382
   C       -3.10114       -16.40190        -2.41872
   O       -3.19598       -17.25775        -3.28274
   C       -4.22275       -15.95446        -1.56320
   C       -5.50044       -16.51937        -1.60546
   C       -5.90243       -17.62129        -2.39077
   C       -7.14971       -18.16288        -2.49781
   C       -8.35644       -17.59354        -2.03883
   C       -9.55434       -18.22943        -1.87198
   C      -10.81551       -17.45592        -1.80107
   O      -10.93397       -16.26207        -1.64339
   C      -11.89099       -18.45673        -1.99858
   C      -11.32664       -19.74373        -2.06553
   C      -12.13625       -20.84834        -2.27287
   C      -13.50064       -20.63744        -2.40845
   C      -14.05480       -19.35930        -2.33094
   C      -13.25046       -18.24994        -2.12350
   F      -15.37787       -19.20267        -2.46041
   F      -14.30116       -21.68754        -2.62005
   C       -9.88290       -19.63530        -1.85016
   C       -9.05016       -20.65908        -1.48067
   C       -7.75376       -20.45709        -0.95992
   N       -6.72682       -20.33607        -0.46261
   C       -9.43598       -22.01527        -1.45544
   N       -9.69756       -23.13246        -1.44022
   H       -7.91666        -2.26440        13.48200
   H       -6.15730        -0.65256        12.92225
   H       -5.58947        -2.49334         9.08595
   H      -10.20975        -6.49852        10.60025
   H      -11.03435        -7.65477         8.58311
   H      -10.61272        -9.13570         6.72549
   H       -6.12164        -9.62467         5.66619
   H       -5.09749       -11.66639         3.23159
   H       -9.15542       -12.67999         2.60568
   H      -10.16949       -10.63191         4.99069
   H       -7.62356       -13.97409         1.18894
   H       -4.68150       -13.10439         1.36621
   H        0.04634       -13.47505        -0.61606
   H        1.97241       -13.86452        -2.19678
   H        1.81589       -15.13044        -3.43254
   H        2.27289       -15.61996        -0.44287
   H        3.49346       -15.77884        -1.71028
   H        2.11215       -16.87937        -1.66931
   H       -0.29627       -16.55217        -3.44032
   H       -5.08981       -18.10402        -2.91884
   H       -7.22654       -19.10256        -3.02995
   H       -8.39404       -16.51752        -1.90357
   H      -11.75259       -21.85338        -2.34098
   H      -13.67845       -17.26198        -2.06397
*
