# ORCA input file
# SCF done       -160.604135871884          0.000382822196
! CAM-B3LYP def2-SVP def2/J RIJCOSX Grid4 TightSCF
%maxcore 5000
%tddft
    Mode sTDDFT
    Ethresh 5.0
    maxcore 5000
end

%pal
  nprocs 6
  end
* xyz 0 1
   C       -0.82774        -2.15206        -5.56668
   S       -1.73005        -3.49351        -5.03842
   C       -1.32418        -3.21594        -3.37806
   C       -0.46676        -2.12178        -3.25566
   C       -0.20161        -1.49942        -4.52463
   C        0.62848        -0.35886        -4.58984
   C        1.19778         0.12191        -3.44006
   C        2.02857         1.26624        -3.48354
   N        2.70072         2.19225        -3.53976
   C        0.99112        -0.54437        -2.18673
   C        1.64818        -0.06217        -1.03157
   N        2.18034         0.30964        -0.08731
   C        0.18366        -1.65009        -2.10020
   C       -1.88604        -4.01396        -2.34320
   C       -2.28608        -3.65164        -1.08078
   C       -2.44573        -2.40328        -0.31810
   O       -2.20545        -1.26023        -0.62368
   N       -2.99458        -2.79911         0.89387
   C       -3.30335        -1.86884         1.95155
   C       -3.24500        -4.16448         0.98523
   O       -3.71954        -4.70400         1.95701
   C       -2.81688        -4.71523        -0.30568
   C       -2.84853        -5.92673        -0.96284
   S       -2.19427        -5.72718        -2.57858
   C       -3.32061        -7.18895        -0.52951
   C       -3.86641        -7.51481         0.69549
   C       -4.23255        -8.85980         0.80337
   C       -4.92423        -9.44707         1.96981
   C       -6.33266        -9.43286         1.88102
   C       -7.11305        -9.94531         2.90180
   C       -6.49436       -10.47712         4.02362
   C       -5.12532       -10.49610         4.12796
   C       -4.31846        -9.98137         3.10610
   O       -2.99000       -10.08868         3.36575
   C       -2.01384        -9.66166         2.44878
   O       -6.81817        -8.89281         0.72696
   C       -8.21259        -8.84133         0.54594
   C       -3.98953        -9.57576        -0.36003
   S       -3.26793        -8.57715        -1.58515
   C       -4.24132       -10.94396        -0.62517
   S       -4.95186       -12.02334         0.58597
   C       -4.91259       -13.45026        -0.47937
   C       -4.36926       -13.04162        -1.67351
   C       -4.00374       -11.68332        -1.74563
   C       -3.51185       -11.92605        -3.15294
   N       -4.02826       -13.30973        -3.00960
   C       -5.37613       -14.69346         0.00444
   S       -5.65595       -14.92304         1.69601
   C       -6.12415       -16.58003         1.49511
   C       -6.07302       -16.94224         0.14775
   C       -5.66168       -15.86510        -0.70943
   C       -5.62357       -16.04960        -2.10048
   C       -5.93616       -17.27795        -2.63292
   C       -5.89037       -17.46953        -4.03085
   N       -5.83475       -17.59980        -5.16870
   C       -6.30654       -18.36626        -1.77920
   C       -6.60680       -19.62326        -2.35080
   N       -6.85029       -20.65103        -2.79578
   C       -6.38152       -18.19426        -0.41936
   C       -6.50219       -17.39473         2.60771
   C       -6.54809       -16.97918         3.87447
   H       -0.79955        -1.89993        -6.60804
   H        0.81187         0.12136        -5.53915
   H        0.06798        -2.16148        -1.15919
   H       -2.39227        -1.37886         2.29736
   H       -3.75740        -2.43060         2.76572
   H       -3.99465        -1.10808         1.58746
   H       -3.99928        -6.79359         1.48256
   H       -8.18840        -9.93754         2.83992
   H       -7.09942       -10.87954         4.82138
   H       -4.63175       -10.90580         4.99374
   H       -2.08539       -10.20061         1.49984
   H       -1.05942        -9.89664         2.92015
   H       -2.06798        -8.58530         2.26566
   H       -8.36423        -8.37868        -0.42814
   H       -8.69523        -8.23056         1.31498
   H       -8.65387        -9.84297         0.54370
   H       -2.43148       -11.84838        -3.27847
   H       -4.02563       -11.37379        -3.93895
   H       -3.45686       -14.10206        -3.26941
   H       -5.37352       -15.22691        -2.75084
   H       -6.67884       -19.02080         0.20778
   H       -6.76532       -18.41601         2.36740
   H       -6.29367       -15.96754         4.14487
   H       -6.84201       -17.63718         4.67190
*
