# ORCA input file
# SCF done       -147.556081999116          0.000551663708
! CAM-B3LYP def2-SVP def2/J RIJCOSX Grid4 TightSCF
%maxcore 5000
%tddft
    Mode sTDDFT
    Ethresh 5.0
    maxcore 5000
end

%pal
  nprocs 6
  end
* xyz 0 1
   C        1.79299        -6.87283        -0.20213
   S        0.58145        -6.08917        -1.09463
   C       -0.11837        -5.36422         0.32521
   C        0.53478        -5.83329         1.47379
   C        1.67417        -6.65151         1.15707
   C        2.56235        -7.06596         2.17073
   C        2.32746        -6.67942         3.46577
   C        3.27041        -6.93759         4.48716
   N        4.05114        -7.10534         5.30827
   C        1.11867        -5.99147         3.80002
   C        0.89730        -5.61787         5.14468
   N        0.75212        -5.24518         6.21856
   C        0.21390        -5.63050         2.82892
   C       -1.14478        -4.38753         0.12468
   C       -1.57772        -3.35636         0.97830
   N       -2.62820        -2.53935         0.71394
   C       -3.28407        -2.56100        -0.39483
   C       -2.88926        -3.46032        -1.41634
   C       -1.81951        -4.37839        -1.13132
   N       -1.64141        -5.11570        -2.21095
   O       -2.53229        -4.68359        -3.10044
   N       -3.28728        -3.70129        -2.64927
   C       -0.90960        -2.96204         2.19467
   O        0.41119        -3.14002         2.32757
   C        0.80965        -2.55620         3.48663
   C       -0.27388        -1.97595         4.11019
   C       -1.39237        -2.23148         3.28435
   C       -2.78398        -1.91982         3.57561
   O       -3.74917        -2.54614         3.23700
   C       -2.94879        -0.65819         4.47901
   F       -2.13580         0.33851         4.09871
   F       -4.19274        -0.19171         4.45568
   F       -2.64674        -0.93655         5.75780
   C        2.15958        -2.70379         3.94225
   C        3.24057        -3.23721         3.22459
   N        4.38058        -3.68153         3.83180
   C        4.62165        -3.53584         5.08945
   C        3.69148        -2.84123         5.89966
   C        2.43936        -2.43841         5.31175
   N        1.73430        -1.86231         6.26736
   O        2.49509        -1.89782         7.35590
   N        3.66460        -2.47814         7.16585
   C        3.31344        -3.50265         1.81468
   S        4.48987        -4.70491         1.39579
   C        4.02789        -4.69730        -0.23823
   C        3.02971        -3.77678        -0.49931
   C        2.65503        -3.03553         0.67648
   C        1.74510        -1.96840         0.54193
   C        1.05650        -1.81562        -0.63714
   C        0.03359        -0.84591        -0.74618
   N       -0.83287        -0.10005        -0.81940
   C        1.32428        -2.65854        -1.76330
   C        0.50641        -2.53505        -2.90999
   N       -0.19341        -2.46946        -3.81468
   C        2.34291        -3.57583        -1.71475
   H        2.53539        -7.46755        -0.69598
   H        3.43262        -7.65237         1.91949
   H       -0.73110        -5.19409         3.11524
   H       -4.10977        -1.87752        -0.51066
   H       -0.25201        -1.47319         5.05496
   H        5.52638        -3.96661         5.48914
   H        4.50099        -5.34936        -0.94511
   H        1.58650        -1.26956         1.34862
   H        2.59894        -4.16100        -2.58462
*
