# ORCA input file
# SCF done       -167.076713316388          0.000535690399
! CAM-B3LYP def2-SVP def2/J RIJCOSX Grid4 TightSCF
%maxcore 5000
%tddft
    Mode sTDDFT
    Ethresh 5.0
    maxcore 5000
end

%pal
  nprocs 6
  end
* xyz 0 1
   C       -1.59200         0.27823        -5.18252
   S       -1.73266        -0.54640        -3.69994
   C       -2.38061        -1.96901        -4.45241
   C       -2.51351        -1.76936        -5.83023
   C       -2.03875        -0.47811        -6.24545
   C       -2.07084        -0.12168        -7.61165
   C       -2.58549        -1.00713        -8.52198
   C       -2.61307        -0.67303        -9.89624
   N       -2.62724        -0.37977       -11.00388
   C       -3.13341        -2.26172        -8.09470
   C       -3.72621        -3.11683        -9.05092
   N       -4.22244        -3.81372        -9.81342
   C       -3.10881        -2.62761        -6.77206
   C       -2.58199        -3.19848        -3.76512
   N       -2.99051        -3.34064        -2.45880
   C       -3.45409        -2.30089        -1.57357
   C       -4.77152        -1.69228        -2.04471
   C       -3.05494        -4.69703        -2.07796
   O       -3.40472        -5.05872        -0.97000
   C       -2.61631        -5.41795        -3.24414
   C       -2.34162        -4.46939        -4.26842
   C       -1.78690        -5.18187        -5.40002
   O       -1.36441        -4.80445        -6.47497
   N       -1.81274        -6.52872        -5.00342
   C       -1.30768        -7.56765        -5.86766
   C        0.10285        -7.99941        -5.47400
   C       -2.29095        -6.68556        -3.72041
   C       -2.40966        -7.94077        -3.07696
   C       -2.85694        -8.07402        -1.80154
   C       -2.96269        -9.32361        -1.14421
   O       -2.63172       -10.48530        -1.76559
   C       -2.80633       -11.48038        -0.88659
   C       -3.25220       -11.01279         0.31086
   C       -3.34851        -9.60859         0.15982
   S       -3.96690        -8.46570         1.33212
   C       -3.03696        -8.90416         2.74627
   C       -1.70572        -9.34978         2.69264
   C       -0.99503        -9.67443         3.89656
   N        0.30892       -10.01049         3.82028
   C        0.88459       -10.05270         2.65262
   C        0.17265        -9.77035         1.46816
   N       -1.08262        -9.42900         1.49912
   C       -1.61188        -9.56225         5.16625
   C       -2.90589        -8.98785         5.20113
   C       -3.62112        -8.68118         4.00349
   N       -4.86899        -8.17661         4.06471
   C       -5.38335        -7.94577         5.23881
   C       -4.67145        -8.22130         6.42636
   N       -3.47571        -8.73917         6.39503
   C       -0.97207        -9.90774         6.39572
   S       -1.38878        -9.03526         7.82817
   C       -0.19250        -9.83180         8.78441
   C        0.44004       -10.83865         8.04807
   C       -0.00756       -10.88465         6.68245
   C        0.45282       -11.91328         5.84362
   C        1.37259       -12.82242         6.30879
   C        1.83981       -13.84280         5.45125
   N        2.20841       -14.65663         4.73283
   C        1.83670       -12.76171         7.65893
   C        2.76438       -13.72120         8.12244
   N        3.52129       -14.48557         8.51835
   C        1.35685       -11.79907         8.51380
   C       -0.01555        -9.40681        10.14473
   C        1.09695        -9.50551        10.87210
   H       -1.18730         1.27034        -5.20486
   H       -1.69383         0.83930        -7.92792
   H       -3.55914        -3.55444        -6.45834
   H       -2.68694        -1.52767        -1.46940
   H       -3.59533        -2.78758        -0.60393
   H       -4.65696        -1.21305        -3.01469
   H       -5.10866        -0.94862        -1.32832
   H       -5.53119        -2.46584        -2.12773
   H       -1.29203        -7.14136        -6.87478
   H       -1.99391        -8.41898        -5.85572
   H        0.77826        -7.14901        -5.52730
   H        0.45649        -8.76675        -6.15703
   H        0.12206        -8.39447        -4.46064
   H       -2.13446        -8.82683        -3.63032
   H       -3.13987        -7.20673        -1.22058
   H       -2.59244       -12.47574        -1.22427
   H       -3.47942       -11.58113         1.18903
   H        1.93328       -10.31558         2.63868
   H        0.64043        -9.81763         0.49465
   H       -6.38541        -7.54144         5.26189
   H       -5.09324        -8.02725         7.40255
   H        0.07803       -12.00741         4.83846
   H        1.65897       -11.80653         9.54873
   H       -0.87901        -8.90894        10.56888
   H        2.01247        -9.91652        10.48539
   H        1.12852        -9.13825        11.88277
*
