# ORCA input file
# SCF done       -138.672942348185          0.000442843259
! CAM-B3LYP def2-SVP def2/J RIJCOSX Grid4 TightSCF
%maxcore 5000
%tddft
    Mode sTDDFT
    Ethresh 5.0
    maxcore 5000
end

%pal
  nprocs 6
  end
* xyz 0 1
   C       -3.16486        -9.29297         1.62666
   C       -3.79201        -8.79329         0.49071
   N       -3.30196        -7.77040        -0.18309
   C       -2.16703        -7.22154         0.26938
   C       -1.54617        -7.73112         1.42008
   N       -2.04304        -8.75401         2.08486
   C       -1.63345        -6.11306        -0.47538
   S       -0.14703        -5.30447        -0.00380
   C       -0.23406        -4.21227        -1.34132
   C       -1.32956        -4.45078        -2.09828
   C       -2.13612        -5.53078        -1.61237
   C       -3.26094        -5.69987        -2.48175
   C       -3.19476        -4.78013        -3.49376
   C       -1.96782        -3.92434        -3.32327
   O       -1.61478        -3.01851        -4.03639
   C       -4.05796        -4.55637        -4.60004
   C       -5.24658        -5.17507        -4.80364
   C       -6.09015        -4.95438        -5.92107
   S       -7.73934        -5.58370        -5.87389
   C       -8.11197        -4.94661        -7.43493
   C       -7.04625        -4.30533        -7.96631
   C       -5.88562        -4.30501        -7.12315
   C       -4.82937        -3.65381        -7.83059
   C       -5.27368        -3.22833        -9.05788
   C       -6.71635        -3.59967        -9.22394
   O       -7.44395        -3.38274       -10.16452
   C       -4.47751        -2.55845       -10.02671
   C       -4.93124        -2.11360       -11.22312
   C       -4.07542        -1.45914       -12.15360
   O       -2.77183        -1.27401       -11.84924
   C       -2.15979        -0.65654       -12.86633
   C       -3.10781        -0.42114       -13.87625
   C       -4.33117        -0.93581       -13.40676
   N       -2.96098         0.17332       -15.15796
   O       -1.84777         0.32795       -15.61419
   O       -3.98797         0.47547       -15.73029
   C       -0.78118        -0.32972       -12.74267
   O       -0.20977         0.42081       -13.68316
   C        1.09056         0.60436       -13.37167
   C        1.37872        -0.03704       -12.19356
   C        0.17659        -0.65849       -11.75861
   C        0.00853        -1.47092       -10.58031
   O       -0.99654        -1.99088       -10.15987
   C        1.33006        -1.68733        -9.77782
   F        1.84137        -0.53222        -9.31879
   F        1.13011        -2.47487        -8.72451
   F        2.28893        -2.26360       -10.52401
   C        1.92609         1.37371       -14.25808
   C        1.49806         1.82369       -15.43488
   H       -3.55691       -10.13341         2.18084
   H       -4.70763        -9.22172         0.10592
   H       -0.63150        -7.29905         1.80431
   H        0.53385        -3.47491        -1.46996
   H       -4.01237        -6.45232        -2.33093
   H       -3.71131        -3.80590        -5.29621
   H       -5.61730        -5.87091        -4.06323
   H       -9.08936        -5.09534        -7.85030
   H       -3.82318        -3.52293        -7.47452
   H       -3.43466        -2.40839        -9.77433
   H       -5.96137        -2.24167       -11.51665
   H       -5.26144        -0.92340       -13.93567
   H        2.33286        -0.05793       -11.71009
   H        2.93085         1.55080       -13.90317
   H        0.49587         1.61924       -15.77388
   H        2.13628         2.39509       -16.08503
*
