# ORCA input file
# SCF done       -162.590018029454          0.000676332015
! CAM-B3LYP def2-SVP def2/J RIJCOSX Grid4 TightSCF
%maxcore 5000
%tddft
    Mode sTDDFT
    Ethresh 5.0
    maxcore 5000
end

%pal
  nprocs 6
  end
* xyz 0 1
   C        2.23534        -2.92715        -0.55240
   O        3.35443        -2.25676        -0.80149
   C        3.45781        -1.25176         0.10702
   C        2.37012        -1.28951         0.95494
   C        1.57386        -2.38171         0.52540
   C        0.35973        -2.81220         1.08438
   N       -0.63013        -3.15054         1.55255
   C        4.59079        -0.38960         0.02924
   C        4.80771         0.65468         0.86367
   C        5.94343         1.49842         0.75509
   N        6.16981         2.58214         1.57268
   C        5.30613         3.07680         2.61564
   C        4.12841         3.86819         2.05071
   C        7.36356         3.25002         1.24604
   O        7.74576         4.25406         1.81700
   C        7.91267         2.48291         0.15460
   C        7.01557         1.42508        -0.13280
   C        7.55067         0.68098        -1.25183
   O        7.14021        -0.29333        -1.85448
   N        8.73804         1.34987        -1.57944
   C        9.61825         0.85828        -2.61025
   C       10.81092         0.10600        -2.02459
   C        8.98017         2.42090        -0.74458
   C       10.09711         3.27050        -0.84583
   C       10.35719         4.22654         0.09499
   C       11.41041         5.15046         0.01249
   S       12.23507         5.42211        -1.49731
   C       13.09263         6.78915        -0.88577
   C       12.67119         7.10004         0.42194
   C       11.81117         6.09993         0.97315
   C       11.46498         6.18035         2.34556
   N       10.95087         5.08217         3.09810
   O       11.16818         3.95429         2.69210
   O       10.39691         5.33131         4.15180
   C       11.78397         7.32735         3.05352
   C       12.42170         8.39452         2.44861
   C       12.87124         8.31722         1.13346
   N       13.43847         9.39931         0.55148
   C       14.14899         7.34091        -1.66526
   C       14.12289         7.23224        -3.07916
   C       15.15323         7.77374        -3.91517
   N       15.03877         7.64405        -5.24972
   C       14.00367         7.01066        -5.74624
   C       13.00252         6.47785        -4.92344
   N       13.06826         6.60433        -3.62511
   C       16.28559         8.42339        -3.34338
   C       16.36041         8.40953        -1.92148
   C       15.33569         7.86271        -1.09157
   N       15.52442         7.77962         0.23869
   C       16.63219         8.25105         0.74701
   C       17.60069         8.87713        -0.05423
   N       17.45465         8.93306        -1.35146
   C       17.32773         9.04311        -4.07339
   S       18.68893         9.78882        -3.23436
   C       19.43961        10.31701        -4.68650
   C       18.71152         9.95133        -5.78961
   C       17.52279         9.23100        -5.44098
   N       16.91409         8.94226        -6.60856
   N       17.60562         9.40793        -7.66062
   C       18.67382        10.01190        -7.21126
   H        1.99086        -3.76257        -1.17919
   H        2.15560        -0.63672         1.77553
   H        5.29526        -0.61200        -0.76134
   H        4.09860         0.86892         1.64974
   H        5.92590         3.73389         3.23251
   H        4.95716         2.24275         3.23095
   H        4.49486         4.72055         1.48405
   H        3.50530         4.23279         2.86271
   H        3.52204         3.25020         1.39168
   H        9.95389         1.69277        -3.23316
   H        9.01733         0.17966        -3.22235
   H       11.39157         0.75096        -1.36900
   H       11.45246        -0.25202        -2.82529
   H       10.46315        -0.74793        -1.44855
   H       10.76972         3.14999        -1.68386
   H        9.69317         4.29445         0.94342
   H       11.51131         7.37471         4.09694
   H       12.59358         9.30196         3.00709
   H       13.46074        10.26593         1.05841
   H       13.59769         9.41710        -0.43870
   H       13.95785         6.92431        -6.82374
   H       12.14406         5.95731        -5.32303
   H       16.76147         8.13560         1.81386
   H       18.49828         9.31722         0.35542
   H       20.36466        10.85701        -4.64784
   H       16.05708         8.41277        -6.69403
   H       19.37483        10.46370        -7.88307
*
