# ORCA input file
# SCF done       -169.243263426013          0.000414684996
! CAM-B3LYP def2-SVP def2/J RIJCOSX Grid4 TightSCF
%maxcore 5000
%tddft
    Mode sTDDFT
    Ethresh 5.0
    maxcore 5000
end

%pal
  nprocs 6
  end
* xyz 0 1
   C        1.51251        -2.43206        -5.94711
   C        2.74324        -2.88197        -6.44022
   C        3.61174        -1.81125        -6.38215
   C        2.90227        -0.67643        -5.84644
   O        3.51094         0.53231        -5.65748
   C        4.80451         0.54925        -6.04974
   C        5.46511        -0.50456        -6.55863
   O        4.91887        -1.73466        -6.74961
   C        1.60707        -1.06278        -5.56047
   C        0.55677        -0.21186        -5.02844
   C        0.27139         1.05535        -5.45261
   C       -0.85237         1.57495        -4.68885
   O       -1.35351         2.81649        -4.91352
   C       -0.69711         3.50327        -5.89290
   C        0.33309         3.02107        -6.59833
   O        0.86872         1.78128        -6.43705
   C       -1.24590         0.63436        -3.79174
   C       -0.37606        -0.49411        -3.95064
   C       -0.37819        -1.60054        -3.11941
   N        0.52325        -2.62195        -3.19012
   C        0.31293        -3.59599        -2.25041
   C       -0.81032        -3.17786        -1.48331
   C       -1.24477        -1.92747        -2.02132
   N       -2.28568        -1.27340        -1.51674
   C       -2.87575        -1.86453        -0.49237
   C       -2.44673        -3.09081         0.03351
   N       -1.41729        -3.75809        -0.45117
   C        1.13329        -4.71770        -2.21272
   O        2.12114        -4.79285        -3.14308
   C        2.80449        -5.95917        -2.95712
   C        2.24104        -6.64594        -1.87657
   C        1.18448        -5.87105        -1.39801
   C        0.35734        -6.20660        -0.31590
   N       -0.26534        -6.55835         0.58037
   C        3.86224        -6.22418        -3.82496
   C        4.67481        -7.33615        -3.80259
   C        5.71260        -7.49815        -4.71259
   N        6.56465        -8.56726        -4.73256
   C        7.52247        -8.48242        -5.70890
   C        7.25902        -7.25313        -6.40435
   C        6.13422        -6.64203        -5.77895
   N        5.63977        -5.47614        -6.19430
   C        6.27110        -4.93360        -7.21940
   C        7.37757        -5.53507        -7.83207
   N        7.88032        -6.69206        -7.43714
   C        8.50636        -9.42148        -5.95102
   C        9.42047        -9.35304        -7.05646
   C       10.14335       -10.50129        -7.05340
   C        9.71509       -11.32357        -5.93130
   O       10.28023       -12.53298        -5.66970
   C       11.24269       -12.88780        -6.56270
   C       11.63451       -12.13623        -7.59840
   O       11.12186       -10.90806        -7.90137
   C        8.73530       -10.66791        -5.24145
   C        8.07429       -11.16072        -4.04760
   C        7.62006       -12.45006        -3.84259
   C        7.07078       -12.53636        -2.51533
   O        6.52957       -13.68700        -2.03194
   C        6.58008       -14.71996        -2.91373
   C        7.08705       -14.63606        -4.15526
   O        7.61545       -13.51569        -4.69872
   C        7.20863       -11.30502        -1.90597
   C        7.82846       -10.45875        -2.83322
   H        0.60504        -3.00788        -5.94052
   H        2.97091        -3.86645        -6.79627
   H        5.27308         1.50889        -5.91183
   H        6.49745        -0.45387        -6.85846
   H       -1.09777         4.48989        -6.04593
   H        0.82718         3.59031        -7.36651
   H       -2.03454         0.69402        -3.07068
   H        1.25019        -2.66754        -3.89614
   H       -3.72405        -1.34378        -0.07069
   H       -2.95101        -3.54830         0.87253
   H        2.55960        -7.59166        -1.48759
   H        4.05304        -5.47430        -4.57960
   H        4.52484        -8.11197        -3.06392
   H        6.53643        -9.34164        -4.07880
   H        5.88385        -3.98473        -7.56266
   H        7.87247        -5.06646        -8.67137
   H        9.47536        -8.53666        -7.74625
   H       11.67059       -13.85227        -6.35092
   H       12.40083       -12.44579        -8.28702
   H        6.16511       -15.62952        -2.51563
   H        7.10635       -15.47780        -4.82642
   H        6.91257       -11.05286        -0.90749
   H        8.15342        -9.45460        -2.62942
*
