# ORCA input file
# SCF done       -197.144030628697          0.000790912068
! CAM-B3LYP def2-SVP def2/J RIJCOSX Grid4 TightSCF
%maxcore 5000
%tddft
    Mode sTDDFT
    Ethresh 5.0
    maxcore 5000
end

%pal
  nprocs 6
  end
* xyz 0 1
   C       -2.08691        -1.88024        -1.31962
   N       -1.31329        -1.09575        -2.11378
   C       -0.35183        -1.55919        -3.08144
   C       -1.03320        -2.11292        -4.33024
   C       -1.61782         0.27687        -1.93910
   O       -1.05210         1.16100        -2.55145
   C       -2.65832         0.27749        -0.94077
   C       -2.91920        -1.08378        -0.58342
   C       -3.96248        -1.09156         0.42316
   O       -4.51046        -1.98946         1.02339
   N       -4.25973         0.26999         0.61308
   C       -5.29913         0.68564         1.52321
   C       -6.58448         1.06504         0.79107
   C       -3.49687         1.09311        -0.18939
   C       -3.62606         2.50401        -0.17438
   C       -2.87908         3.32778        -0.95444
   C       -3.02361         4.74398        -1.03860
   C       -4.13716         5.47664        -0.55508
   C       -4.17812         6.90108        -0.67469
   N       -5.29720         7.57595        -0.34905
   C       -6.26558         6.92933         0.23149
   C       -6.18513         5.54086         0.45628
   N       -5.18013         4.83781         0.01596
   C       -3.07558         7.63589        -1.17737
   C       -1.97446         6.91433        -1.68003
   C       -1.97514         5.48404        -1.65066
   N       -0.92986         4.80488        -2.15949
   C        0.09496         5.47220        -2.60694
   C        0.13787         6.87962        -2.54404
   N       -0.87619         7.57671        -2.11028
   C       -3.12782         9.06010        -1.00048
   N       -2.76120        10.03639        -1.88346
   C       -2.37052         9.86005        -3.26089
   C       -3.51346         9.29618        -4.09994
   C       -3.03993        11.32643        -1.37590
   O       -2.83269        12.35196        -1.99182
   C       -3.57952        11.08024        -0.05975
   C       -3.63289         9.68435         0.13897
   C       -4.12406         9.45124         1.48013
   O       -4.28678         8.44022         2.13186
   N       -4.39186        10.74287         1.98581
   C       -4.93175        10.88245         3.31753
   C       -6.45586        10.97892         3.30728
   C       -4.07528        11.72534         1.07486
   C       -4.19167        13.13384         1.14562
   C       -4.81862        13.88841         2.09006
   C       -4.98254        15.29205         2.14599
   N       -4.47510        16.30094         1.35801
   C       -3.61588        16.20274         0.20095
   C       -4.40184        15.89118        -1.07044
   C       -4.92141        17.56817         1.78298
   O       -4.59747        18.60758         1.24427
   C       -5.76430        17.29856         2.92663
   C       -5.77047        15.90140         3.12549
   C       -6.60860        15.60438         4.26256
   O       -6.91432        14.55878         4.80124
   N       -7.06919        16.86637         4.68358
   C       -7.91936        17.00299         5.83993
   C       -7.13961        17.45677         7.07194
   C       -6.57423        17.88640         3.89875
   C       -6.89148        19.25075         4.08760
   C       -6.39411        20.24217         3.29970
   C       -6.72494        21.60550         3.48975
   O       -7.55518        21.99382         4.48372
   C       -7.69099        23.33832         4.42297
   C       -6.94457        23.84094         3.38073
   C       -6.31681        22.73281         2.77093
   C       -5.46118        22.77193         1.66136
   N       -4.76102        22.85310         0.75710
   C       -8.52616        24.03013         5.36747
   C       -9.20907        23.42977         6.33954
   H       -1.98578        -2.94986        -1.32845
   H        0.28192        -2.32389        -2.62230
   H        0.26195        -0.69348        -3.34457
   H       -1.67144        -2.95672        -4.07742
   H       -0.28459        -2.44309        -5.04492
   H       -1.64341        -1.34227        -4.79466
   H       -4.94115         1.51930         2.13384
   H       -5.48739        -0.17367         2.17350
   H       -6.41881         1.90608         0.12186
   H       -7.35008         1.33587         1.51317
   H       -6.94156         0.21980         0.20767
   H       -4.35923         2.93591         0.48789
   H       -2.08774         2.91776        -1.57059
   H       -7.15591         7.49293         0.47340
   H       -6.98769         4.99491         0.93394
   H        0.90455         4.89421        -3.03000
   H        1.00411         7.43892        -2.87152
   H       -1.50114         9.20000        -3.30242
   H       -2.09386        10.85472        -3.62102
   H       -3.80945         8.31479        -3.73478
   H       -3.19783         9.20137        -5.13528
   H       -4.37669         9.95663        -4.05715
   H       -4.47899        11.74627         3.80811
   H       -4.63482         9.97803         3.85789
   H       -6.79638        11.78093         2.65672
   H       -6.81881        11.17402         4.31222
   H       -6.88030        10.04303         2.95221
   H       -3.74896        13.60562         0.28125
   H       -5.31891        13.40824         2.91755
   H       -2.83959        15.45707         0.38436
   H       -3.14160        17.18351         0.09709
   H       -4.99773        14.98875        -0.95597
   H       -3.71474        15.74672        -1.89899
   H       -5.06739        16.71859        -1.30428
   H       -8.34269        16.01058         6.02019
   H       -8.73430        17.69793         5.61706
   H       -6.36099        16.73422         7.30349
   H       -7.80873        17.53192         7.92479
   H       -6.67318        18.42509         6.90440
   H       -7.56562        19.51170         4.89107
   H       -5.71726        20.01829         2.48610
   H       -6.85531        24.86706         3.08749
   H       -8.56580        25.10147         5.23244
   H       -9.17054        22.36220         6.47363
   H       -9.82342        23.98648         7.02399
*
