# ORCA input file
# SCF done       -196.274887869292          0.000930488130
! CAM-B3LYP def2-SVP def2/J RIJCOSX Grid4 TightSCF
%maxcore 5000
%tddft
    Mode sTDDFT
    Ethresh 5.0
    maxcore 5000
end

%pal
  nprocs 6
  end
* xyz 0 1
   C       -1.43376         0.17176         1.08015
   S       -1.69376        -1.34033         1.81983
   C       -1.24425        -2.22937         0.39470
   C       -0.89618        -1.33413        -0.62509
   C       -1.01373         0.03552        -0.22592
   N       -0.73870         1.04939        -1.08539
   C       -0.36059         0.69697        -2.28287
   O       -0.08321         1.61770        -3.20085
   C       -0.23986         2.97822        -2.80247
   C        0.07607         3.85843        -3.99706
   C       -0.22106        -0.68535        -2.68910
   C        0.24237        -1.01467        -4.08204
   N        0.34813        -2.42155        -4.38754
   N       -0.48760        -1.66157        -1.87157
   C       -1.29296        -3.63619         0.38984
   C       -0.95694        -4.40201        -0.68878
   C       -1.06377        -5.80307        -0.67261
   C       -1.50421        -6.68482         0.29684
   C       -1.45931        -8.00023        -0.25917
   C       -0.88854        -7.86598        -1.58621
   O       -0.54886        -8.68729        -2.39916
   O       -0.70500        -6.51534        -1.78655
   C       -1.89876        -8.86889         0.71796
   O       -2.15135        -8.17001         1.86493
   C       -1.95127        -6.80883         1.66392
   O       -2.13032        -6.00044         2.53521
   C       -2.12310       -10.26456         0.74387
   S       -2.08301       -11.09992         2.26090
   C       -2.41041       -12.62208         1.48185
   C       -2.54863       -12.46654         0.10528
   C       -2.41638       -11.13252        -0.30498
   C       -2.66831       -10.66844        -1.70598
   C       -3.67098        -9.55166        -1.76845
   O       -3.63139        -8.60736        -2.50284
   C       -4.91547        -9.67434        -0.82764
   F       -5.13627       -10.90378        -0.34346
   F       -4.78803        -8.85871         0.22918
   F       -6.02712        -9.31363        -1.47428
   C       -3.20549       -11.80920        -2.59873
   C       -2.43602       -13.08733        -2.29553
   C       -2.76606       -13.56565        -0.88398
   C       -2.52367       -13.76731         2.31485
   C       -3.02480       -14.97650         1.96808
   C       -3.14504       -16.07685         2.84975
   S       -2.63208       -16.09205         4.52759
   C       -3.17280       -17.74464         4.78657
   C       -3.72175       -18.23260         3.61164
   C       -3.69474       -17.30163         2.54680
   C       -4.28992       -17.91428         1.35655
   O       -4.45129       -17.47795         0.24340
   N       -4.65371       -19.18491         1.78463
   C       -4.35642       -19.45581         3.11635
   O       -4.61104       -20.50377         3.66450
   C       -2.99597       -18.32947         6.06079
   C       -3.36242       -19.60267         6.35993
   C       -3.16761       -20.22241         7.61438
   S       -2.23393       -19.43017         8.85972
   C       -2.32977       -20.82548         9.88239
   C       -3.02113       -21.85590         9.26971
   C       -3.56263       -21.49248         8.01922
   C       -4.55668       -22.35435         7.28959
   C       -5.79874       -21.56813         6.84754
   C       -5.00290       -23.49209         8.21430
   C       -3.80574       -24.18146         8.84535
   C       -3.08811       -23.25179         9.82812
   C       -1.68142       -23.80576        10.08532
   C       -1.79172       -20.78670        11.21526
   C       -0.96034       -19.85171        11.66886
   H       -1.59832         1.08322         1.61834
   H        0.43429         3.18228        -1.96315
   H       -1.26733         3.12889        -2.45295
   H        1.09738         3.69037        -4.32728
   H       -0.04209         4.90235        -3.72235
   H       -0.59600         3.62848        -4.81928
   H        1.22000        -0.54436        -4.23764
   H       -0.44781        -0.54798        -4.79358
   H        0.98545        -2.87043        -3.73794
   H       -0.55452        -2.87107        -4.27469
   H       -1.62652        -4.11743         1.30063
   H       -0.61179        -3.93777        -1.59957
   H       -1.74090       -10.28230        -2.15256
   H       -3.08792       -11.51917        -3.64250
   H       -4.26693       -11.98028        -2.40766
   H       -1.36527       -12.89718        -2.38463
   H       -2.70873       -13.86047        -3.01418
   H       -2.14036       -14.42214        -0.62639
   H       -3.81063       -13.88839        -0.84666
   H       -2.20903       -13.62235         3.34194
   H       -3.40985       -15.17196         0.97994
   H       -5.10287       -19.86069         1.18366
   H       -2.54407       -17.70405         6.81965
   H       -3.79752       -20.21335         5.58431
   H       -4.07781       -22.78233         6.40067
   H       -6.10499       -20.86993         7.62378
   H       -6.61649       -22.26343         6.67060
   H       -5.63267       -21.01880         5.92784
   H       -5.58901       -24.21090         7.63965
   H       -5.64458       -23.08443         8.99941
   H       -3.11022       -24.47467         8.05533
   H       -4.11816       -25.08731         9.36782
   H       -3.64161       -23.23129        10.77547
   H       -1.10065       -23.78140         9.16527
   H       -1.75200       -24.83857        10.41957
   H       -1.14525       -23.23570        10.83724
   H       -2.13325       -21.57188        11.87683
   H       -0.60554       -19.05828        11.03211
   H       -0.60765       -19.85440        12.68474
*
