# ORCA input file
# SCF done       -162.218184979173          0.000818653424
! CAM-B3LYP def2-SVP def2/J RIJCOSX Grid4 TightSCF
%maxcore 5000
%tddft
    Mode sTDDFT
    Ethresh 5.0
    maxcore 5000
end

%pal
  nprocs 6
  end
* xyz 0 1
   C        5.70422        -7.41217         0.04092
   S        4.15585        -6.75341         0.32792
   C        3.34954        -8.05417        -0.49974
   C        4.29428        -8.97455        -0.98244
   C        5.64525        -8.59208        -0.66774
   C        6.72351        -9.39948        -1.09154
   C        6.46868       -10.54069        -1.80616
   C        7.53776       -11.35480        -2.24651
   N        8.41820       -12.00064        -2.59413
   C        5.12304       -10.92184        -2.12074
   C        4.89467       -12.10077        -2.86278
   N        4.68839       -13.05252        -3.46814
   C        4.06008       -10.14945        -1.71151
   C        1.95056        -8.09963        -0.64402
   C        1.10087        -7.11720        -0.22897
   C       -0.29138        -7.12748        -0.40184
   S       -1.13208        -8.47592        -1.10466
   C       -2.66924        -7.67608        -1.03530
   C       -2.53675        -6.39967        -0.46216
   C       -1.19735        -6.09357        -0.08867
   C       -0.91777        -4.86110         0.51682
   C       -1.92347        -3.95234         0.76033
   C       -1.61465        -2.67203         1.39463
   C       -0.67258        -2.49325         2.31119
   C       -3.26495        -4.25825         0.38422
   C       -4.36507        -3.28108         0.66486
   C       -3.55093        -5.45807        -0.21088
   C       -3.84791        -8.28161        -1.52225
   C       -3.97535        -9.59533        -1.83000
   C       -5.16707       -10.19340        -2.35121
   C       -6.15986        -9.48241        -3.05234
   N       -7.27077       -10.03772        -3.46728
   C       -7.45920       -11.34630        -3.21307
   C       -6.41923       -12.07971        -2.60279
   N       -5.31231       -11.52185        -2.18979
   C       -8.69417       -11.94484        -3.59881
   S       -9.17237       -13.47253        -2.94443
   C      -10.66814       -13.49072        -3.83174
   C      -10.76621       -12.34595        -4.64502
   C       -9.65765       -11.46322        -4.49958
   C       -9.61495       -10.27663        -5.24757
   C      -10.63206        -9.96471        -6.12049
   C      -10.57329        -8.72739        -6.89729
   C       -9.45243        -8.16396        -7.32827
   C      -11.74619       -10.84531        -6.26205
   C      -12.84615       -10.51935        -7.22524
   C      -11.79881       -12.00566        -5.53487
   C      -11.61659       -14.51343        -3.68240
   C      -11.51786       -15.55598        -2.80758
   C      -12.49837       -16.54880        -2.64365
   S      -13.93725       -16.59638        -3.61557
   C      -14.56363       -17.99573        -2.80918
   C      -13.68404       -18.41886        -1.80889
   C      -12.50813       -17.60261        -1.71218
   C      -11.53230       -17.89346        -0.74801
   C      -11.70917       -18.96013         0.10332
   C      -10.73570       -19.25430         1.08274
   N       -9.93508       -19.47706         1.87254
   C      -12.88032       -19.77590         0.00791
   C      -13.04315       -20.86482         0.89411
   N      -13.19942       -21.74995         1.60493
   C      -13.84519       -19.50851        -0.93196
   C      -15.81731       -18.57454        -3.17403
   C      -16.61603       -18.11950        -4.14179
   H        6.57620        -6.90399         0.40053
   H        7.73710        -9.11225        -0.85537
   H        3.05387       -10.45280        -1.95823
   H        1.53963        -8.96999        -1.13770
   H        1.51965        -6.24021         0.24751
   H        0.09786        -4.61443         0.78370
   H       -2.21765        -1.82981         1.08367
   H       -0.07224        -3.30669         2.68339
   H       -0.48088        -1.52554         2.74186
   H       -4.24039        -2.37927         0.06515
   H       -4.36195        -2.99079         1.71434
   H       -5.33242        -3.71628         0.42687
   H       -4.56951        -5.69162        -0.48285
   H       -4.70531        -7.62859        -1.61581
   H       -3.15841       -10.27710        -1.63585
   H       -6.03576        -8.43700        -3.30249
   H       -6.50056       -13.15105        -2.46776
   H       -8.78061        -9.61041        -5.10630
   H      -11.52263        -8.26510        -7.13123
   H       -8.48565        -8.60399        -7.15019
   H       -9.46258        -7.24661        -7.89174
   H      -12.44210       -10.32450        -8.21751
   H      -13.38911        -9.63108        -6.90192
   H      -13.55219       -11.34336        -7.29227
   H      -12.63841       -12.67448        -5.65355
   H      -12.50317       -14.43988        -4.29875
   H      -10.64084       -15.62477        -2.17814
   H      -10.64394       -17.28603        -0.66487
   H      -14.72288       -20.13406        -0.98937
   H      -16.11010       -19.44544        -2.60323
   H      -16.35350       -17.25531        -4.72940
   H      -17.55030       -18.59855        -4.37154
*
