# ORCA input file
# SCF done       -306.819889042599          0.000529032398
! CAM-B3LYP def2-SVP def2/J RIJCOSX Grid4 TightSCF
%maxcore 5000
%tddft
    Mode sTDDFT
    Ethresh 5.0
    maxcore 5000
end

%pal
  nprocs 6
  end
* xyz 0 1
   C      -12.20745        -1.56758        -2.67115
   O      -12.76910        -0.51895        -2.89833
   C      -12.83388        -2.90766        -2.59965
   C      -11.85524        -3.87236        -2.30098
   C      -12.20094        -5.20862        -2.18494
   C      -13.53046        -5.55887        -2.37193
   C      -14.51164        -4.61418        -2.66838
   C      -14.15747        -3.26826        -2.78341
   F      -15.09168        -2.36801        -3.06715
   F      -15.77904        -4.99316        -2.84221
   F      -13.88367        -6.84057        -2.26657
   C      -10.56021        -3.20216        -2.16836
   C       -9.37915        -3.82895        -1.87045
   C       -9.25125        -5.21755        -1.64604
   N       -9.07675        -6.33483        -1.45220
   C       -8.11925        -3.20459        -1.73931
   N       -7.05786        -2.78451        -1.61477
   C      -10.77520        -1.78734        -2.40713
   C       -9.80503        -0.82166        -2.39978
   C       -9.88489         0.56470        -2.63415
   C       -8.75358         1.36411        -2.60836
   C       -8.99730         2.71537        -2.88237
   C       -8.05752         3.77432        -2.96928
   C       -6.63201         3.57934        -2.83857
   C       -5.71351         4.44485        -2.30798
   C       -4.38788         3.97712        -2.41468
   C       -4.26802         2.76323        -3.03264
   S       -5.82756         2.17027        -3.48320
   C       -3.03944         1.97824        -3.30438
  Cl       -3.04485         4.88221        -1.83012
   C       -8.58590         5.03125        -3.22956
   C       -9.97013         5.28059        -3.43334
   C      -10.90059         4.22098        -3.37249
   C      -10.38466         2.95876        -3.08202
   S      -11.32314         1.49849        -2.97918
   C      -12.31530         4.40060        -3.62229
   C      -13.36093         3.75828        -3.01807
   C      -14.61305         4.12193        -3.55382
   C      -14.54993         5.02511        -4.57711
   S      -12.90626         5.46047        -4.87901
   C      -15.67228         5.60251        -5.35931
  Cl      -16.09803         3.47738        -2.97711
   C      -10.22897         6.64447        -3.68914
   C       -9.10456         7.42685        -3.71932
   S       -7.65335         6.48900        -3.41860
   C       -8.97223         8.81648        -3.97249
   S       -7.43123         9.42234        -4.46603
   C       -8.01429        11.05477        -4.60631
   C       -9.38762        11.11202        -4.29088
   C       -9.92345         9.84498        -3.90888
   C      -11.26816         9.77907        -3.49322
   C      -12.04831        10.89646        -3.54705
   S      -13.75352        10.79778        -3.04263
   C      -14.51520        10.50526        -4.68435
   C      -14.16076         9.14429        -5.24784
   C      -11.53557        12.14639        -3.98912
   S      -12.69447        13.45588        -4.02834
   C      -11.74656        14.90717        -4.60255
   C      -10.91431        15.53324        -3.49899
   C      -10.20920        12.24538        -4.34128
   C       -7.16076        12.11544        -4.92801
   C       -5.85991        11.94394        -5.30938
   C       -4.91617        12.95877        -5.60368
   C       -5.41046        14.34957        -5.60062
   C       -6.52378        14.76814        -6.32810
   C       -7.09850        16.01807        -6.13715
   C       -6.57099        16.88574        -5.18711
   C       -5.44968        16.50184        -4.45801
   C       -4.88088        15.25187        -4.67432
   F       -3.80732        14.90972        -3.96294
   F       -4.92525        17.33318        -3.56006
   F       -7.13216        18.07649        -4.98579
   F       -8.17286        16.37545        -6.84605
   F       -7.06417        13.95746        -7.24600
   C       -3.56523        12.65559        -5.70496
   C       -3.08653        11.41859        -5.06249
   C       -2.18247        10.54840        -5.67963
   C       -1.72396         9.39220        -5.06243
   C       -2.16140         9.06719        -3.78250
   C       -3.04823         9.92145        -3.13295
   C       -3.49149        11.07444        -3.76517
   F       -4.31861        11.87769        -3.08953
   F       -3.48023         9.62654        -1.90735
   F       -1.74362         7.95203        -3.19053
   F       -0.87892         8.58641        -5.70578
   F       -1.74121        10.81340        -6.91522
   C       -2.56678        13.44275        -6.38958
   C       -1.28830        13.56924        -5.90886
   C       -0.35413        14.23906        -6.77027
   C        0.96099        14.52253        -6.51020
   C        1.62912        14.19711        -5.31498
   N        2.23955        13.96444        -4.37196
   C        1.75072        15.18071        -7.47495
   N        2.38529        15.71589        -8.26672
   S       -1.10549        14.67979        -8.27292
   C       -2.76804        13.97304        -7.79702
   C       -3.68941        15.16622        -7.94810
   C       -4.59436        15.27615        -8.99473
   C       -5.33157        16.43723        -9.16116
   C       -5.15266        17.51045        -8.30757
   C       -4.22788        17.41911        -7.27932
   C       -3.50386        16.25651        -7.10108
   C       -3.12403        12.78245        -8.67772
   C       -2.18623        12.16573        -9.49405
   C       -2.52376        11.04907       -10.23867
   C       -3.80155        10.52539       -10.17576
   C       -4.74481        11.13555        -9.36755
   C       -4.41023        12.25340        -8.62637
   C       -0.91375        13.09636        -4.63422
   N       -0.65594        12.67401        -3.59992
   H      -11.48912        -5.98479        -1.95866
   H       -8.79359        -1.15023        -2.19422
   H       -7.78251         0.95955        -2.38819
   H       -5.96138         5.36429        -1.81157
   H       -2.16425         2.59901        -3.13038
   H       -3.02898         1.62092        -4.33265
   H       -2.98777         1.10944        -2.64755
   H      -13.25822         3.07303        -2.19811
   H      -16.33162         4.80673        -5.70351
   H      -15.29740         6.15363        -6.21742
   H      -16.26382         6.27572        -4.73759
   H      -11.21235         7.02365        -3.88477
   H      -11.68698         8.86399        -3.11156
   H      -14.20274        11.31447        -5.34299
   H      -15.58404        10.58896        -4.49517
   H      -13.09317         9.07159        -5.44782
   H      -14.69644         8.98356        -6.18106
   H      -14.43608         8.36107        -4.54593
   H      -12.51917        15.59951        -4.93692
   H      -11.15151        14.61190        -5.46601
   H      -11.55601        15.85058        -2.68057
   H      -10.38989        16.40553        -3.88487
   H      -10.18310        14.83149        -3.10241
   H       -9.78457        13.17977        -4.66620
   H       -7.57616        13.10813        -4.82922
   H       -5.50180        10.92587        -5.39117
   H       -4.71923        14.46525        -9.69487
   H       -6.03540        16.50477        -9.97647
   H       -5.71569        18.41996        -8.45077
   H       -4.05605        18.26159        -6.62609
   H       -2.76650        16.20223        -6.31154
   H       -1.17944        12.54703        -9.55752
   H       -1.77665        10.58758       -10.86566
   H       -4.06214         9.65051       -10.75170
   H       -5.75016        10.74592        -9.30892
   H       -5.16498        12.71417        -8.01227
*
