# ORCA input file
# SCF done       -233.399252000890          0.000952082127
! CAM-B3LYP def2-SVP def2/J RIJCOSX Grid4 TightSCF
%maxcore 5000
%tddft
    Mode sTDDFT
    Ethresh 5.0
    maxcore 5000
end

%pal
  nprocs 6
  end
* xyz 0 1
   C        1.26755         0.10997         0.47750
   C        0.33714        -0.69771        -0.07668
   C        0.64020        -1.97201        -0.81408
   O        0.61084        -2.08709        -2.00783
   O        0.90896        -2.95970         0.04175
   C        1.22090        -4.21855        -0.54053
   C       -1.02887        -0.36982        -0.02774
   N       -2.14796        -0.11949         0.02348
   C        2.67785        -0.08388         0.48673
   C        3.58907         0.78292         1.03018
   C        4.93238         0.36439         0.89708
   C        6.10045         1.04230         1.30793
   C        6.02326         2.26910         2.07212
   C        5.18080         2.56481         3.10780
   C        5.37608         3.85673         3.63409
   C        6.35821         4.55584         3.00227
   S        7.07958         3.61386         1.73868
   C        6.83318         5.93706         3.27535
   C        7.30894         0.46029         0.94636
   C        7.40668        -0.76431         0.23752
   C        6.24161        -1.45974        -0.14288
   C        5.03132        -0.86572         0.20110
   S        3.45873        -1.48255        -0.21923
   C        6.26949        -2.71343        -0.86830
   C        5.43795        -3.78721        -0.71151
   C        5.69452        -4.83381        -1.61932
   C        6.71164        -4.56624        -2.48207
   S        7.38787        -2.99982        -2.17501
   C        7.26045        -5.42316        -3.56524
   C        8.75321        -1.15008         0.04163
   C        9.65845        -0.27005         0.56138
   S        8.88563         1.08988         1.33909
   C       11.08115        -0.36948         0.50231
   C       11.81099        -1.24600        -0.24684
   C       13.21065        -1.08806        -0.10757
   C       14.23143        -1.84435        -0.71819
   C       13.96066        -2.88243        -1.69142
   C       14.60121        -4.07959        -1.84809
   C       14.11819        -4.83653        -2.93399
   C       13.11930        -4.22200        -3.62316
   S       12.74301        -2.68091        -2.92492
   C       12.38271        -4.70284        -4.82129
   C       15.53463        -1.52932        -0.34740
   C       15.85891        -0.50914         0.58064
   C       14.83849         0.25404         1.18368
   C       13.53531        -0.05689         0.80813
   S       12.09801         0.70667         1.43164
   C       15.10652         1.29505         2.15451
   C       14.46260         2.49097         2.30637
   C       14.93812         3.25114         3.39339
   C       15.93517         2.64119         4.08882
   S       16.31851         1.09937         3.39483
   C       16.66734         3.12958         5.28646
   C       17.25868        -0.36257         0.73145
   C       17.98881        -1.22923        -0.02906
   S       16.97169        -2.27986        -0.98733
   C       19.41150        -1.33489        -0.08230
   C       20.31119        -0.72460         0.74346
   C       21.66004        -1.02198         0.43504
   C       22.81489        -0.58049         1.11113
   C       22.72598         0.37471         2.19657
   C       21.95316         1.49952         2.26746
   C       22.10843         2.20736         3.47594
   C       22.99028         1.62696         4.33431
   S       23.66323         0.18182         3.65263
   C       23.39607         2.07820         5.69074
   C       24.02515        -1.10135         0.66879
   C       24.13171        -2.00409        -0.41990
   C       22.97812        -2.42268        -1.11757
   C       21.76764        -1.91206        -0.66217
   S       20.19553        -2.31876        -1.29712
   C       23.03707        -3.31615        -2.25608
   C       22.30555        -3.24786        -3.41014
   C       22.60453        -4.27742        -4.32336
   C       23.54885        -5.14782        -3.87158
   S       24.09779        -4.70116        -2.29155
   C       24.11508        -6.34275        -4.54858
   C       25.47827        -2.32245        -0.70447
   C       26.38232        -1.69944         0.10938
   S       25.59130        -0.69915         1.31242
   C       27.80602        -1.77707         0.10009
   C       28.56382        -2.25461        -0.91311
   C       28.02168        -2.71061        -2.23599
   O       28.06706        -3.83805        -2.64744
   O       27.50923        -1.67177        -2.90245
   C       26.91301        -1.94235        -4.16439
   C       29.96230        -2.34167        -0.79247
   N       31.10491        -2.40300        -0.70626
   H        0.92831         1.01954         0.96037
   H        2.13557        -4.13825        -1.13228
   H        0.40644        -4.54777        -1.18861
   H        1.35697        -4.90929         0.28755
   H        3.30125         1.71409         1.48373
   H        4.47415         1.86102         3.51059
   H        4.80568         4.25276         4.45566
   H        6.74096         6.55906         2.38551
   H        7.88275         5.93050         3.56863
   H        6.24728         6.38033         4.07691
   H        4.69119        -3.84548         0.05985
   H        5.14044        -5.75588        -1.63039
   H        6.68270        -6.34120        -3.64074
   H        8.30067        -5.67954        -3.36294
   H        7.22458        -4.90432        -4.52278
   H        9.04570        -2.05765        -0.45076
   H       11.35585        -1.98386        -0.87938
   H       15.37139        -4.42824        -1.18428
   H       14.50236        -5.80707        -3.19355
   H       12.67139        -5.72613        -5.04944
   H       12.60515        -4.07635        -5.68547
   H       11.30687        -4.66569        -4.65377
   H       13.69464         2.83661         1.63850
   H       14.54941         4.22063         3.64997
   H       16.32419         4.12729         5.54946
   H       17.73987         3.16320         5.09640
   H       16.50171         2.46644         6.13562
   H       17.71317         0.37603         1.36369
   H       20.01880        -0.11293         1.57585
   H       21.32574         1.83348         1.46020
   H       21.58321         3.11964         3.69810
   H       22.87491         2.99715         5.94849
   H       24.46979         2.25947         5.72998
   H       23.16019         1.31869         6.43582
   H       21.60207        -2.46167        -3.61677
   H       22.13436        -4.36723        -5.28651
   H       23.74253        -6.40492        -5.56831
   H       23.83683        -7.25372        -4.01807
   H       25.20317        -6.29129        -4.56923
   H       25.76692        -3.02075        -1.46592
   H       28.30857        -1.42152         0.99146
   H       27.37843        -2.81829        -4.62123
   H       27.06480        -1.05946        -4.78139
   H       25.84371        -2.12572        -4.02980
*
