# ORCA input file
# SCF done       -203.223398857494          0.000420513470
! CAM-B3LYP def2-SVP def2/J RIJCOSX Grid4 TightSCF
%maxcore 5000
%tddft
    Mode sTDDFT
    Ethresh 5.0
    maxcore 5000
end

%pal
  nprocs 6
  end
* xyz 0 1
   C       -1.72005         4.08412         1.03603
   C       -1.39307         4.43787         2.32139
   C       -0.10001         4.81906         2.73163
   N        0.92934         5.14674         3.12117
   C       -2.29266         4.43073         3.40696
   N       -2.96260         4.42325         4.34007
   C       -0.79275         3.97530        -0.08308
   C       -1.49379         3.45764        -1.20079
   C       -0.89052         3.24121        -2.41556
   C        0.46956         3.54579        -2.53304
   C        1.16019         4.06403        -1.41208
   C        0.54963         4.28531        -0.18274
   S        2.82555         4.37604        -1.78898
   C        2.58818         3.81984        -3.40952
   C        1.32402         3.41760        -3.66432
   C       -2.90637         3.23275        -0.83790
   O       -3.79153         2.86493        -1.58431
   C       -3.02438         3.66413         0.57330
   C       -4.20971         3.87251         1.23202
   C       -5.46417         3.34397         0.88990
   S       -6.90080         4.23661         1.33047
   C       -7.98107         3.08918         0.59672
   C       -7.24103         2.03333         0.09181
   C       -5.83239         2.15488         0.25557
   C       -5.14118         1.00707        -0.19264
   C       -5.98464         0.08076        -0.73045
   C       -5.66559        -1.22218        -1.31714
   O       -6.48794        -1.97031        -1.78666
   O       -4.35195        -1.48505        -1.27004
   C       -3.95774        -2.72952        -1.82932
   S       -7.66407         0.54385        -0.69536
   C       -9.39953         3.32505         0.56631
   C      -10.27449         2.36221         0.03982
   C      -11.62067         2.62737        -0.00278
   C      -12.12702         3.84585         0.47513
   C      -11.27254         4.80010         1.01172
   C       -9.92156         4.53257         1.05410
   C      -13.56025         3.84787         0.28202
   C      -13.94266         2.62154        -0.29375
   C      -12.73443         1.73903        -0.52409
   C      -12.46852         1.51492        -2.03099
   C      -13.42439         0.58931        -2.77117
   C      -12.72630         0.42644         0.29692
   C      -14.06803        -0.26766         0.49884
   C      -15.26603         2.40257        -0.60505
   C      -16.20980         3.40484        -0.36019
   C      -15.81914         4.60728         0.22874
   C      -14.49572         4.83519         0.55319
   C      -17.61050         3.16807        -0.73353
   C      -17.94668         2.60705        -1.97646
   O      -17.00249         2.30553        -2.93810
   C      -16.37566         3.42110        -3.53726
   C      -19.26664         2.30949        -2.25289
   C      -20.28629         2.56794        -1.33740
   C      -19.95907         3.20458        -0.12094
   C      -18.62833         3.47714         0.16222
   O      -20.99297         3.45674         0.71304
   C      -20.72649         3.99870         1.98575
   C      -21.65723         2.24159        -1.63176
   C      -22.11014         1.18078        -2.33791
   C      -21.44185        -0.02570        -2.79723
   C      -20.39114        -0.65431        -2.18484
   C      -19.83860        -1.87223        -2.63176
   N      -19.34533        -2.85421        -2.96363
   C      -19.79472        -0.22081        -0.98183
   N      -19.30999         0.02511         0.02926
   C      -22.25351        -0.58425        -3.87114
   C      -23.49351         0.10537        -3.91167
   C      -23.49041         1.17914        -2.90005
   O      -24.38996         1.93640        -2.61692
   C      -24.48999        -0.22660        -4.79812
   C      -24.24977        -1.27606        -5.69005
   C      -23.00330        -1.94664        -5.65106
   C      -21.99719        -1.61874        -4.75048
   S      -22.92501        -3.19806        -6.85097
   C      -24.52950        -2.82540        -7.37937
   C      -25.10298        -1.81096        -6.69647
   H       -1.45141         2.84813        -3.24937
   H        1.11572         4.68900         0.64015
   H        3.42407         3.82953        -4.08172
   H        0.99166         3.04252        -4.61542
   H       -4.21282         4.55941         2.07034
   H       -4.08264         0.85195        -0.11519
   H       -2.87481        -2.76898        -1.74727
   H       -4.26803        -2.79076        -2.87443
   H       -4.41547        -3.55432        -1.27901
   H       -9.88856         1.42241        -0.32031
   H      -11.65548         5.73660         1.38755
   H       -9.24236         5.26609         1.46406
   H      -11.45668         1.11400        -2.12770
   H      -12.47844         2.49612        -2.51510
   H      -13.40496        -0.41177        -2.35068
   H      -13.11155         0.51890        -3.81147
   H      -14.44274         0.96455        -2.75387
   H      -12.32348         0.65840         1.28689
   H      -12.02885        -0.26319        -0.18253
   H      -14.75534         0.36759         1.05159
   H      -13.91101        -1.17672         1.07631
   H      -14.53194        -0.54451        -0.44212
   H      -15.60564         1.47446        -1.03132
   H      -16.55701         5.37711         0.40272
   H      -14.19372         5.77146         0.99815
   H      -15.65605         3.01579        -4.24611
   H      -15.85328         4.04076        -2.80211
   H      -17.10638         4.03828        -4.07186
   H      -19.50584         1.88193        -3.21539
   H      -18.34939         3.90465         1.11221
   H      -21.69586         4.08774         2.47319
   H      -20.26604         4.98907         1.91311
   H      -20.08443         3.33612         2.57293
   H      -22.40657         2.94754        -1.29063
   H      -25.42728         0.30789        -4.80211
   H      -21.06073        -2.15182        -4.75982
   H      -24.94991        -3.39876        -8.18259
   H      -26.09458        -1.44188        -6.88638
*
