# ORCA input file
# SCF done       -200.136615701447          0.000431745913
! CAM-B3LYP def2-SVP def2/J RIJCOSX Grid4 TightSCF
%maxcore 5000
%tddft
    Mode sTDDFT
    Ethresh 5.0
    maxcore 5000
end

%pal
  nprocs 6
  end
* xyz 0 1
   C       -4.91785         2.02400         5.78910
   C       -3.72679         1.34135         5.83788
   C       -2.95918         1.17099         7.00825
   N       -2.28686         0.99166         7.92176
   C       -3.09818         0.71167         4.74528
   N       -2.52459         0.17552         3.90574
   C       -5.56770         2.67274         6.92423
   C       -6.78021         3.26073         6.47991
   C       -7.62242         3.94870         7.31885
   C       -7.25309         4.06295         8.66308
   C       -6.04277         3.47304         9.09842
   C       -5.18973         2.77717         8.24839
   S       -5.78911         3.73779        10.79428
   C       -7.27382         4.61781        10.90406
   C       -7.93496         4.71325         9.72972
   C       -6.93742         2.99964         5.04182
   O       -7.86659         3.35544         4.33237
   C       -5.76242         2.23073         4.63286
   C       -5.52002         1.78441         3.35458
   C       -6.28833         1.92078         2.19928
   S       -7.83267         2.72350         2.02241
   C       -7.94056         2.31822         0.32876
   C       -6.82371         1.59547        -0.07403
   C       -5.88869         1.37501         0.96106
   C       -4.75533         0.66168         0.51571
   C       -4.83715         0.35875        -0.81384
   C       -3.86789        -0.35381        -1.65208
   O       -4.03355        -0.58766        -2.82421
   O       -2.77931        -0.70566        -0.95852
   C       -1.77590        -1.39529        -1.69025
   S       -6.29904         0.92095        -1.58067
   C       -9.04849         2.70580        -0.45664
   C       -9.34174         2.32000        -1.75443
   C      -10.53462         2.86934        -2.22329
   C      -11.14945         3.71034        -1.29118
   S      -10.26286         3.77925         0.18740
   C      -12.30964         4.41458        -1.67972
   C      -12.90872         4.10153        -2.89320
   C      -12.38780         2.94627        -3.69472
   O      -11.00922         2.66798        -3.47052
   C      -13.99443         4.92018        -3.18559
   C      -14.23484         5.87094        -2.20896
   S      -13.08980         5.74070        -0.89612
   C      -15.23808         6.86927        -2.20270
   C      -15.40505         7.89533        -1.28718
   C      -16.48429         8.71335        -1.61241
   C      -17.15322         8.30417        -2.77992
   S      -16.44424         6.91443        -3.47974
   C      -18.21628         9.20176        -3.03521
   C      -18.21636        10.18816        -2.02645
   C      -17.12758         9.91749        -1.10616
   C      -16.76665        10.66315        -0.02258
   C      -15.67840        10.31443         0.80409
   N      -14.79848        10.02590         1.48009
   C      -17.46992        11.83424         0.33074
   N      -18.05351        12.78052         0.61165
   C      -19.19989        11.15070        -2.21174
   C      -19.95854        10.91626        -3.34916
   S      -19.45018         9.44762        -4.18001
   C      -21.04856        11.65407        -3.85842
   C      -21.39660        12.94640        -3.60554
   C      -20.70108        14.06523        -3.00514
   C      -19.34910        14.29693        -3.01720
   C      -18.74877        15.47991        -2.53773
   N      -18.20628        16.42195        -2.16999
   C      -18.40385        13.43483        -3.60437
   N      -17.59599        12.78224        -4.09496
   C      -21.70989        15.05217        -2.63529
   C      -22.95267        14.66987        -3.20384
   C      -22.79135        13.38290        -3.90165
   O      -23.61447        12.77103        -4.54406
   C      -24.08851        15.43139        -3.06786
   C      -23.99691        16.61520        -2.32925
   C      -22.75641        16.97617        -1.74950
   C      -21.60448        16.21120        -1.89224
   S      -22.88257        18.46739        -0.87244
   C      -24.55690        18.59735        -1.28596
   C      -25.00951        17.57362        -2.04232
   H       -8.53736         4.38497         6.94925
   H       -4.27893         2.34714         8.63012
   H       -7.56414         5.01544        11.85708
   H       -8.87328         5.22304         9.60654
   H       -4.60305         1.23310         3.19395
   H       -3.91479         0.38098         1.12405
   H       -0.98068        -1.60916        -0.98131
   H       -1.40695        -0.77175        -2.50730
   H       -2.17925        -2.31964        -2.10876
   H       -8.72398         1.66279        -2.33637
   H      -12.47738         3.13908        -4.76694
   H      -12.97276         2.04088        -3.45544
   H      -14.59230         4.83897        -4.07580
   H      -14.75641         8.02661        -0.43971
   H      -19.39364        11.96570        -1.53824
   H      -21.74428        11.11048        -4.49076
   H      -25.01898        15.12330        -3.51886
   H      -20.68332        16.51912        -1.42572
   H      -25.10792        19.44635        -0.93058
   H      -26.02178        17.48551        -2.39316
*
