# ORCA input file
# SCF done       -230.541597261228          0.000369773974
! CAM-B3LYP def2-SVP def2/J RIJCOSX Grid4 TightSCF
%maxcore 5000
%tddft
    Mode sTDDFT
    Ethresh 5.0
    maxcore 5000
end

%pal
  nprocs 6
  end
* xyz 0 1
   C       -5.15051        -3.25150        -0.99230
   C       -5.76173        -4.16790        -1.81507
   C       -5.72699        -5.56276        -1.61160
   N       -5.74225        -6.70723        -1.51535
   C       -6.52413        -3.88335        -2.96502
   N       -7.16357        -3.74557        -3.91132
   C       -4.40258        -3.59194         0.21288
   C       -3.99353        -2.39168         0.84186
   C       -3.26476        -2.37478         2.00577
   C       -2.91677        -3.60305         2.57659
   C       -3.32611        -4.79775         1.93945
   C       -4.06709        -4.81433         0.76345
   S       -2.78032        -6.19502         2.81385
   C       -2.02565        -5.18754         4.00027
   C       -2.17090        -3.86620         3.76013
   C       -4.46045        -1.23664         0.05138
   O       -4.28710        -0.06991         0.34509
   C       -5.14667        -1.80627        -1.12695
   C       -5.65136        -1.14933        -2.22241
   C       -5.73345         0.21049        -2.55614
   N       -6.23898         0.54382        -3.80941
   C       -6.21227         1.88742        -3.94468
   C       -6.47609         2.94069        -4.81449
   C       -6.11660         4.10901        -4.13108
   N       -5.65368         3.78584        -2.87547
   C       -5.68829         2.43261        -2.73779
   C       -5.39120         1.39401        -1.87353
   C       -6.16693         5.43453        -4.64091
   C       -5.86926         6.55711        -3.94601
   C       -5.84086         7.87000        -4.49778
   C       -5.94609         8.27409        -5.80088
   C       -5.79275         9.66703        -5.98370
   C       -5.81350        10.39126        -7.19486
   C       -6.13498         9.77334        -8.46496
   C       -5.59363        10.03018        -9.69195
   C       -6.20229         9.28703       -10.72683
   C       -7.21481         8.46983       -10.31624
   S       -7.42298         8.60360        -8.60294
   C       -8.07008         7.56655       -11.12627
  Cl       -5.69594         9.41567       -12.36725
   C       -5.51713        11.74767        -7.10919
   C       -5.28040        12.41647        -5.88246
   C       -5.33815        11.70734        -4.66455
   C       -5.54749        10.33744        -4.75729
   S       -5.56296         9.22570        -3.42107
   C       -5.19471        12.39676        -3.39928
   C       -5.72804        13.60343        -3.04472
   C       -5.38921        13.98309        -1.72830
   C       -4.59858        13.08758        -1.06868
   S       -4.26477        11.72757        -2.08696
   C       -4.05516        13.16414         0.31052
  Cl       -5.93849        15.45940        -1.02960
   C       -4.95912        13.77960        -6.07554
   C       -4.96758        14.16501        -7.38648
   S       -5.39633        12.84627        -8.45764
   C       -4.62717        15.43743        -7.91915
   C       -4.52096        15.78970        -9.25092
   C       -4.10748        17.11256        -9.40842
   C       -3.90699        17.77310        -8.18432
   S       -4.22547        16.76476        -6.84234
   C       -3.46124        19.09250        -8.44586
   C       -3.37882        19.26297        -9.84256
   C       -3.77490        18.02527       -10.49098
   C       -3.78084        17.76991       -11.83071
   C       -4.16782        16.52037       -12.35871
   N       -4.48839        15.50675       -12.78764
   C       -3.39370        18.75160       -12.76725
   N       -3.07999        19.56046       -13.51710
   C       -2.89682        20.51300       -10.20740
   C       -2.60470        21.30542        -9.10718
   S       -2.97674        20.48300        -7.59483
   C       -2.10697        22.62636        -9.07308
   C       -1.45287        23.31222       -10.05043
   C       -0.81600        22.91465       -11.28907
   C       -0.20696        21.71490       -11.55432
   C        0.52580        21.44800       -12.72993
   N        1.13982        21.17794       -13.66095
   C       -0.14623        20.64038       -10.64673
   N       -0.04164        19.74689        -9.93266
   C       -0.67957        24.11452       -12.10723
   C       -0.98606        25.24792       -11.31001
   C       -1.39776        24.80053        -9.96849
   O       -1.68159        25.47806        -9.00701
   C       -0.90368        26.53115       -11.79493
   C       -0.51510        26.70234       -13.12722
   C       -0.23208        25.56279       -13.91901
   C       -0.30600        24.26439       -13.42801
   S        0.21112        26.01372       -15.53418
   C        0.02508        27.68836       -15.14389
   C       -0.35423        27.90831       -13.86610
   H       -2.97036        -1.44124         2.45987
   H       -4.35046        -5.75296         0.31804
   H       -1.51124        -5.65584         4.81685
   H       -1.76920        -3.09227         4.38895
   H       -6.04723        -1.79027        -3.00132
   H       -6.56466        -0.12735        -4.48478
   H       -6.87313         2.90035        -5.80864
   H       -5.30950         4.44318        -2.19837
   H       -4.97954         1.43327        -0.88680
   H       -6.46164         5.51450        -5.67683
   H       -5.62282         6.49922        -2.89437
   H       -6.09090         7.58690        -6.61248
   H       -4.76609        10.69294        -9.86237
   H       -7.74409         7.58968       -12.16298
   H       -9.11305         7.87890       -11.07727
   H       -8.00917         6.54358       -10.75681
   H       -6.37670        14.18350        -3.67467
   H       -4.36524        14.09649         0.77565
   H       -2.96676        13.11912         0.29759
   H       -4.41767        12.33083         0.91161
   H       -4.68685        14.44698        -5.27793
   H       -4.72743        15.10153       -10.05086
   H       -2.79480        20.85823       -11.22012
   H       -2.32112        23.20011        -8.17643
   H       -1.13225        27.37689       -11.16517
   H       -0.09158        23.42488       -14.06858
   H        0.21398        28.41658       -15.90853
   H       -0.51876        28.88401       -13.44599
*
