# ORCA input file
# SCF done       -216.030351439006          0.000736073066
! CAM-B3LYP def2-SVP def2/J RIJCOSX Grid4 TightSCF
%maxcore 5000
%tddft
    Mode sTDDFT
    Ethresh 5.0
    maxcore 5000
end

%pal
  nprocs 6
  end
* xyz 0 1
   C        3.78837         1.67091        -5.28728
   C        2.49590         2.11294        -5.35102
   F        1.64498         1.54221        -6.22345
   C        2.01431         3.14461        -4.53498
   C        2.86662         3.73341        -3.64189
   C        4.20774         3.31418        -3.53155
   C        4.67800         2.26276        -4.37062
   C        6.01879         1.81991        -4.27326
   C        6.85043         2.40161        -3.35738
   C        6.37363         3.44723        -2.51541
   C        5.09145         3.90470        -2.59827
   C        7.45341         3.85442        -1.59100
   O        7.43432         4.74608        -0.77216
   C        8.54899         2.88104        -1.82802
   C        8.25287         2.15397        -3.03048
   C        9.16479         1.54891        -3.86785
   C       10.55515         1.61646        -3.64732
   N       11.69166         1.69969        -3.50638
   C        8.82139         0.88215        -5.05151
   N        8.59155         0.28160        -6.00589
   C        9.51325         2.72361        -0.85963
   C       10.28019         1.60071        -0.54959
   S       10.01968         0.02340        -1.25908
   C       11.19329        -0.76362        -0.22856
   C       11.74082         0.17550         0.63504
   C       11.24563         1.49305         0.46610
   C       11.85519         2.40447         1.35331
   C       12.77172         1.79297         2.16050
   C       13.61339         2.38122         3.20736
   O       14.38928         1.74776         3.87935
   O       13.41605         3.70056         3.32162
   C       14.19392         4.35663         4.31396
   S       12.93846         0.07884         1.88047
   C       11.44227        -2.14621        -0.37804
   C       10.91564        -2.84238        -1.44928
   C       11.09023        -4.19163        -1.68608
   C       11.84366        -5.04191        -0.76296
   C       12.46135        -4.57283         0.34450
   S       12.44509        -2.92569         0.83889
   C       11.76607        -6.34728        -1.32265
   C       11.03239        -6.32068        -2.51703
   C       10.95289        -7.60113        -3.10983
   C       11.60507        -8.53735        -2.37303
   S       12.34388        -7.91540        -0.93624
   C       10.60784        -4.97174        -2.76792
   C        9.90781        -4.41287        -3.85070
   C        9.36398        -5.02490        -4.93961
   C        8.75660        -4.28606        -5.97780
   C        8.14393        -4.78214        -7.12335
   C        7.70306        -3.76562        -7.96186
   C        7.97952        -2.47754        -7.45807
   S        8.76940        -2.52054        -5.95082
   C        7.55790        -1.52001        -8.40417
   C        6.99611        -2.19837        -9.50991
   C        7.05761        -3.62646        -9.26027
   C        6.61204        -4.63098       -10.06883
   C        6.73467        -5.98966        -9.71104
   N        6.83246        -7.09475        -9.41993
   C        5.98742        -4.38018       -11.30874
   N        5.47141        -4.18563       -12.31383
   C        6.58987        -1.33478       -10.51897
   C        6.88474        -0.01122       -10.22237
   S        7.58903         0.16542        -8.61321
   C        6.63329         1.09085       -11.06876
   C        7.22669         2.31751       -11.08981
   C        6.54385         3.44922       -11.77328
   O        5.57401         3.38023       -12.49357
   C        7.26960         4.65955       -11.34155
   C        6.99873         5.96811       -11.61955
   C        7.83930         6.97359       -11.09152
   C        8.93981         6.60067       -10.26584
   C        9.77244         7.60839        -9.74112
   C        9.51362         8.91668       -10.04130
   C        8.43936         9.30334       -10.85417
   C        7.61736         8.33854       -11.36661
   F       10.31142         9.88058        -9.54564
   C        9.19770         5.23627        -9.99576
   C        8.38338         4.27950       -10.53806
   C        8.45182         2.82018       -10.50697
   C        9.59195         2.09811       -10.26126
   C        9.73216         0.73004       -10.57113
   N        9.90817        -0.36524       -10.86812
   C       10.78933         2.66372        -9.77969
   N       11.78159         3.07400        -9.37367
   H        4.12472         0.87445        -5.93289
   H        0.98443         3.45066        -4.62754
   H        2.51822         4.53009        -3.00200
   H        6.34823         1.01559        -4.91240
   H        4.74940         4.70218        -1.95592
   H        9.58735         3.54593        -0.15475
   H       11.64212         3.45608         1.40109
   H       14.03810         5.42189         4.16607
   H       15.24851         4.09937         4.19974
   H       13.86446         4.05632         5.31051
   H       10.33108        -2.26164        -2.15020
   H       13.02693        -5.20718         1.00852
   H       10.44776        -7.83076        -4.02948
   H       11.70592        -9.58389        -2.58472
   H        9.80677        -3.33474        -3.81635
   H        9.38771        -6.09794        -5.05387
   H        8.04014        -5.83413        -7.31941
   H        6.15083        -1.63510       -11.45337
   H        5.81852         0.96362       -11.77626
   H        6.15741         6.23344       -12.24204
   H       10.61206         7.34690        -9.11620
   H        8.28574        10.35113       -11.05808
   H        6.78348         8.61149       -11.99572
   H       10.03422         4.98192        -9.36428
*
