# ORCA input file
# SCF done       -249.684970986980          0.000648838749
! CAM-B3LYP def2-SVP def2/J RIJCOSX Grid4 TightSCF
%maxcore 5000
%tddft
    Mode sTDDFT
    Ethresh 5.0
    maxcore 5000
end

%pal
  nprocs 6
  end
* xyz 0 1
   C       -3.49769         3.87233        -2.39118
   C       -2.88089         2.68212        -2.24952
   C       -1.49894         2.80766        -1.92029
   C       -0.55698         1.78177        -1.72063
   C       -0.91148         0.38929        -1.91984
   C       -1.63696        -0.15103        -2.94117
   C       -1.79118        -1.54972        -2.81874
   C       -1.19995        -2.08822        -1.71403
   S       -0.41611        -0.84590        -0.79602
   C       -1.16253        -3.50691        -1.27663
  Cl       -2.65926        -2.48312        -3.97822
   C        0.72227         2.17722        -1.35037
   C        1.11060         3.53397        -1.22616
   C        0.17957         4.56300        -1.46370
   C       -1.11508         4.16238        -1.78833
   S       -2.45490         5.22542        -2.12509
   C        0.53807         5.96513        -1.39052
   C       -0.20816         6.99929        -0.90112
   C        0.44130         8.24660        -1.02115
   C        1.67258         8.19065        -1.60670
   S        2.05261         6.55588        -2.02362
   C        2.61663         9.30000        -1.89621
  Cl       -0.26767         9.71308        -0.46365
   C        2.46855         3.65593        -0.84457
   C        3.11218         2.46209        -0.70879
   S        2.05790         1.10200        -1.03318
   C        4.47806         2.26903        -0.35975
   C        5.14893         1.08966        -0.15219
   C        6.50652         1.26556         0.16373
   S        7.62929        -0.04679         0.48442
   C        6.59810        -1.52214         0.25151
   C        6.88599         2.60052         0.19435
   S        5.53067         3.63499        -0.16382
   C        8.14756         3.20437         0.44575
   C        9.34879         2.62985         0.78806
   C       10.39149         3.55934         0.94026
   S       12.04100         3.15712         1.37506
   C       11.95633         1.35769         1.61437
   C        9.99457         4.86873         0.71303
   S        8.29895         4.93239         0.31052
   C       10.72408         6.08428         0.76066
   C       10.20710         7.33254         0.53969
   C       11.15003         8.37576         0.66096
   C       10.94949         9.75869         0.46701
   C        9.64977        10.32402         0.16699
   C        9.36434        11.37182        -0.66211
   C        7.99004        11.69042        -0.68804
   C        7.21096        10.90961         0.11435
   S        8.19337         9.74283         0.93161
   C        5.74283        10.97270         0.33166
  Cl        7.35766        12.96081        -1.66373
   C       12.07585        10.56734         0.58275
   C       13.37020        10.07005         0.87523
   C       13.56956         8.68807         1.06796
   C       12.44209         7.87969         0.96707
   S       12.43193         6.14206         1.12723
   C       14.87274         8.11447         1.33445
   C       15.17377         7.05931         2.14739
   C       16.54316         6.71903         2.11695
   C       17.30075         7.48902         1.28425
   S       16.30602         8.67869         0.51562
   C       18.75706         7.40928         1.00557
  Cl       17.18836         5.43208         3.06113
   C       14.32236        11.11303         0.98288
   C       13.80257        12.35602         0.77967
   S       12.08551        12.30499         0.44058
   C       14.49415        13.60160         0.78974
   C       13.96512        14.84818         0.64126
   C       14.93125        15.88511         0.66344
   C       14.72277        17.27379         0.56486
   C       13.41158        17.85702         0.36555
   C       12.92099        19.01181         0.90492
   C       11.61731        19.31419         0.45627
   C       11.10080        18.41596        -0.43096
   S       12.24552        17.15121        -0.72224
   C        9.77678        18.42208        -1.10258
  Cl       10.76225        20.70812         0.99625
   C       15.85738        18.07899         0.64960
   C       17.16399        17.56677         0.82024
   C       17.36823        16.18073         0.94435
   C       16.24022        15.37465         0.84798
   S       16.23441        13.63739         0.97977
   C       18.69389        15.63512         1.16555
   C       19.65676        16.09436         2.01625
   C       20.83642        15.31899         1.97150
   C       20.79325        14.27549         1.09462
   S       19.25383        14.23055         0.30129
   C       21.84331        13.27140         0.78760
  Cl       22.20780        15.67742         2.95220
   C       18.14480        18.60167         0.78019
   C       17.60994        19.82632         0.60417
   S       15.88523        19.81434         0.48180
   H       -4.52631         4.05791        -2.63104
   H       -3.38122         1.73706        -2.35123
   H       -2.01527         0.41240        -3.77398
   H       -1.85373        -4.09398        -1.87630
   H       -1.43789        -3.59182        -0.22680
   H       -0.15992        -3.91836        -1.39563
   H       -1.16913         6.88384        -0.43592
   H        2.40995        10.14023        -1.23690
   H        2.50634         9.63776        -2.92761
   H        3.64496         8.97342        -1.75697
   H        2.96461         4.59096        -0.66121
   H        4.65258         0.14022        -0.23180
   H        7.25720        -2.36612         0.43091
   H        6.22339        -1.55568        -0.76709
   H        5.78750        -1.52712         0.97402
   H        9.46124         1.57258         0.92354
   H       12.95956         1.06092         1.90442
   H       11.67993         0.86931         0.68505
   H       11.25535         1.12064         2.40876
   H        9.17427         7.47862         0.28282
   H       10.09274        11.88020        -1.26555
   H        5.26974        11.48590        -0.50278
   H        5.51354        11.52010         1.24689
   H        5.32694         9.97168         0.42529
   H       14.46149         6.55672         2.77434
   H       19.21419         6.66992         1.65853
   H       19.23209         8.37525         1.17143
   H       18.93463         7.12170        -0.03072
   H       15.36032        10.96256         1.21609
   H       12.90868        15.00815         0.52916
   H       13.44534        19.61352         1.62347
   H        9.16581        19.22632        -0.70014
   H        9.26479        17.47312        -0.94921
   H        9.89129        18.57126        -2.17634
   H       19.52435        16.92735         2.68169
   H       22.11982        13.31507        -0.26536
   H       21.48334        12.26495         0.99801
   H       22.72526        13.46591         1.39279
   H       19.20072        18.41914         0.85366
   H       18.12141        20.76650         0.53683
*
