# ORCA input file
# SCF done       -217.237938394798          0.000636550629
! CAM-B3LYP def2-SVP def2/J RIJCOSX Grid4 TightSCF
%maxcore 5000
%tddft
    Mode sTDDFT
    Ethresh 5.0
    maxcore 5000
end

%pal
  nprocs 6
  end
* xyz 0 1
   C        2.79945        -0.86989         2.44312
   O        2.94204        -1.97762         2.91684
   C        3.53313         0.33584         2.88554
   C        3.12281         1.44797         2.13431
   C        3.69256         2.68641         2.38364
   C        4.65789         2.78792         3.37894
   C        5.05625         1.67472         4.12100
   C        4.49000         0.43164         3.87404
  Br        6.36977         1.84319         5.46998
  Br        5.43560         4.47836         3.71715
   C        2.10201         1.01689         1.18039
   C        1.43684         1.85871         0.32791
   C        1.67300         3.24901         0.25083
   N        1.81420         4.38218         0.13669
   C        0.41599         1.51099        -0.58395
   N       -0.42364         1.34209        -1.34912
   C        1.91846        -0.41805         1.34518
   C        1.08073        -1.16242         0.55452
   C        0.72817        -2.52582         0.57679
   C        1.07006        -3.56351         1.41452
   C        0.44242        -4.78038         1.10178
   C        0.56280        -6.01367         1.78746
   C        1.36004        -6.16339         2.98494
   C        2.12767        -7.23664         3.34581
   C        2.73606        -7.07030         4.60591
   C        2.43552        -5.89117         5.22778
   S        1.38367        -4.94846         4.23448
   C        2.88857        -5.39823         6.55237
  Cl        3.76867        -8.26368         5.29365
   C       -0.14928        -7.08219         1.25936
   C       -0.98530        -6.97926         0.11684
   C       -1.12007        -5.74819        -0.55768
   C       -0.38763        -4.68035        -0.04998
   S       -0.39481        -3.06143        -0.67548
   C       -1.99209        -5.57936        -1.70299
   C       -1.77015        -4.82519        -2.82086
   C       -2.85735        -4.84809        -3.71909
   C       -3.91910        -5.59785        -3.30159
   S       -3.57462        -6.30728        -1.76338
   C       -5.21659        -5.82007        -3.99023
  Cl       -2.84468        -4.00577        -5.21995
   C       -1.60559        -8.21014        -0.19282
   C       -1.31108        -9.22199         0.67356
   S       -0.20362        -8.68763         1.92815
   C       -1.79389       -10.58015         0.67452
   C       -1.44731       -11.44236         1.70195
   C       -1.91518       -12.75010         1.76835
   C       -2.75074       -13.27266         0.80170
   C       -3.12183       -12.42636        -0.27744
   C       -2.65026       -11.08668        -0.34821
   N       -3.02042       -10.31058        -1.38560
   C       -3.81897       -10.78797        -2.30337
   C       -4.31494       -12.12000        -2.21329
   N       -3.96140       -12.89355        -1.22295
   C       -5.24488       -12.68724        -3.23271
   C       -4.18934        -9.88569        -3.43282
   C       -3.26643       -14.64065         0.90359
   C       -3.32594       -15.46989        -0.22879
   C       -3.82175       -16.75336        -0.17696
   C       -4.27861       -17.21761         1.05107
   C       -4.20622       -16.38587         2.19070
   C       -3.70250       -15.10458         2.14337
   O       -4.71934       -17.08041         3.23595
   C       -5.07911       -18.27924         2.70129
   N       -4.83994       -18.40760         1.42906
   C       -5.68052       -19.26918         3.53401
   C       -6.12894       -20.48877         3.11789
   C       -6.69771       -21.26692         4.16181
   C       -6.64630       -20.55942         5.39284
   S       -5.91937       -18.98625         5.23619
   C       -7.11069       -21.02207         6.61892
   O       -6.93252       -20.13252         7.63565
   C       -7.32635       -20.43229         8.95001
   C       -7.68346       -22.30311         6.63748
   C       -7.73790       -23.00780         5.40859
   C       -7.27340       -22.54912         4.18059
   O       -7.45091       -23.43188         3.16296
   C       -7.07006       -23.12187         1.84580
   S       -8.47415       -24.57569         5.57532
   C       -8.70559       -24.29356         7.26232
   C       -8.25803       -23.09287         7.68427
   H        3.41528         3.57014         1.83307
   H        4.78806        -0.43886         4.43745
   H        0.57921        -0.61866        -0.23736
   H        1.76355        -3.43394         2.22342
   H        2.29249        -8.09760         2.72540
   H        2.07542        -5.44128         7.27727
   H        3.22019        -4.36431         6.48074
   H        3.70823        -6.01421         6.91328
   H       -0.85600        -4.29945        -3.02396
   H       -5.85785        -4.94415        -3.88467
   H       -5.73179        -6.67749        -3.56567
   H       -5.05112        -5.98631        -5.05350
   H       -2.25501        -8.37256        -1.03063
   H       -0.79330       -11.08376         2.48426
   H       -1.60106       -13.37538         2.59062
   H       -6.15109       -12.08710        -3.29733
   H       -5.50505       -13.70400        -2.95275
   H       -4.77351       -12.69145        -4.21463
   H       -3.86026       -10.31155        -4.37956
   H       -3.72143        -8.91530        -3.29428
   H       -5.27024        -9.76242        -3.47854
   H       -2.96222       -15.08006        -1.16542
   H       -3.86212       -17.38283        -1.05062
   H       -3.68260       -14.47939         3.02160
   H       -6.03296       -20.77064         2.08807
   H       -7.05390       -19.55472         9.53574
   H       -6.79263       -21.30330         9.34162
   H       -8.40693       -20.58764         9.02124
   H       -7.35396       -23.99341         1.25643
   H       -5.99009       -22.97006         1.76466
   H       -7.60261       -22.24411         1.46920
   H       -9.17204       -25.05500         7.85629
   H       -8.34031       -22.79078         8.71039
*
