# ORCA input file
# SCF done       -278.673770517572          0.000627537117
! CAM-B3LYP def2-SVP def2/J RIJCOSX Grid4 TightSCF
%maxcore 5000
%tddft
    Mode sTDDFT
    Ethresh 5.0
    maxcore 5000
end

%pal
  nprocs 6
  end
* xyz 0 1
   C        5.51999         2.98630         2.76100
   C        6.84519         3.22065         3.01579
   C        7.79542         2.20234         3.23758
   N        8.60863         1.41658         3.43451
   C        7.44431         4.49803         3.04542
   N        8.00231         5.50146         3.05812
   C        4.89572         1.67914         2.61143
   C        3.55596         1.86966         2.16858
   C        2.71590         0.81925         1.93475
   C        3.18632        -0.49656         2.14180
   C        4.52325        -0.69595         2.59305
   C        5.37081         0.41215         2.82366
   C        4.97853        -2.01336         2.80330
   C        4.15531        -3.08308         2.57820
   C        2.83979        -2.88543         2.13296
   C        2.36586        -1.61961         1.91855
   C        3.27746         3.30809         2.02838
   O        2.23160         3.80076         1.66022
   C        4.50758         3.99675         2.50161
   C        4.59868         5.30323         2.88176
   C        3.66054         6.33423         2.62846
   C        2.76880         6.48544         1.59925
   C        1.95460         7.63132         1.71439
   C        0.89235         8.02065         0.86765
   C        0.48824         7.19350        -0.24834
   C        0.42074         5.82919        -0.30793
   C       -0.01918         5.36584        -1.56579
   C       -0.28747         6.35021        -2.47358
   S       -0.00483         7.90281        -1.76465
   C       -0.75220         6.22151        -3.87716
  Cl       -0.19424         3.68934        -1.91213
   C        0.24384         9.20355         1.19944
   C        0.57150         9.97817         2.34240
   C        1.61910         9.58074         3.19836
   C        2.29248         8.41435         2.84884
   S        3.58878         7.68738         3.74970
   C        1.97749        10.31532         4.39470
   C        3.22923        10.53067         4.89669
   C        3.21604        11.24272         6.11569
   C        1.97043        11.56700         6.56817
   S        0.77217        10.99051         5.46029
   C        1.58645        12.30244         7.79899
  Cl        4.66328        11.65949         6.94967
   C       -0.26830        11.10753         2.46649
   C       -1.22092        11.19491         1.49089
   S       -1.10786         9.88721         0.33495
   C       -2.24479        12.17556         1.38432
   C       -3.17260        12.33916         0.37640
   C       -4.06174        13.38239         0.65020
   C       -3.80414        14.00566         1.88083
   S       -2.46495        13.32965         2.69148
   C       -4.77833        15.01506         2.09299
   C       -5.64837        15.03725         0.99156
   C       -5.22072        14.01903         0.04251
   C       -5.78952        13.72400        -1.16128
   C       -5.28958        12.70638        -2.00108
   N       -4.88919        11.88017        -2.68780
   C       -6.91519        14.42286        -1.64628
   N       -7.82862        14.99376        -2.03920
   C       -6.67051        15.97913         1.12812
   C       -6.58443        16.66241         2.32644
   S       -5.21286        16.14568         3.29176
   C       -7.46822        17.65330         2.83940
   C       -8.55507        18.21717         2.23011
   C       -9.24262        19.14654         3.04623
   C      -10.41269        19.87038         2.73927
   C      -11.11037        19.67445         1.48441
   C      -11.38256        18.49762         0.84728
   C      -12.08962        18.68356        -0.36043
   C      -12.35632        19.98793        -0.66191
   S      -11.73405        21.02443         0.57624
   C      -13.06662        20.54522        -1.83977
  Cl      -12.56729        17.36173        -1.35602
   C      -10.86838        20.75712         3.70941
   C      -10.24368        20.91346         4.97669
   C       -9.09374        20.15725         5.30029
   C       -8.61734        19.30963         4.30936
   S       -7.22767        18.27118         4.45994
   C       -8.45603        20.22704         6.59755
   C       -7.11862        20.17493         6.87868
   C       -6.85386        20.20936         8.26284
   C       -7.96834        20.27130         9.05029
   S       -9.38841        20.29983         8.06774
   C       -8.05948        20.31281        10.53130
  Cl       -5.25186        20.17215         8.89316
   C      -10.89469        21.87043         5.77734
   C      -12.00809        22.41972         5.19084
   S      -12.27394        21.76400         3.57526
   C      -12.95153        23.37477         5.63524
   C      -13.07068        24.06487         6.80847
   C      -14.16202        24.99503         7.07972
   C      -15.18008        25.35723         6.23630
   C      -16.20450        26.26582         6.58122
   N      -17.07107        26.99051         6.78619
   C      -15.38999        24.91585         4.91193
   N      -15.65536        24.62972         3.83124
   C      -13.99346        25.50347         8.43637
   C      -12.81794        24.92684         8.99063
   C      -12.19602        24.02518         8.00840
   O      -11.17066        23.39874         8.18607
   C      -12.39266        25.21734        10.25496
   C      -13.14259        26.11716        11.04350
   C      -14.32441        26.69741        10.49920
   C      -14.73717        26.37772         9.18544
   C      -15.06839        27.59306        11.29427
   C      -14.66522        27.90234        12.56469
   C      -13.50040        27.33120        13.09887
   C      -12.75538        26.45744        12.35451
   H        1.70468         0.99034         1.59632
   H        6.37521         0.22994         3.17188
   H        5.99256        -2.16087         3.14478
   H        4.51374        -4.08823         2.74211
   H        2.20375        -3.74085         1.96110
   H        1.35388        -1.46074         1.57575
   H        5.43507         5.59404         3.50685
   H        2.73433         5.82013         0.75977
   H        0.63844         5.17070         0.51290
   H       -0.92136         5.17369        -4.11246
   H       -0.00880         6.62271        -4.56572
   H       -1.67846         6.77488        -4.02598
   H        4.13680        10.23181         4.40632
   H        2.48063        12.58479         8.34881
   H        0.95891        11.68175         8.43789
   H        1.02430        13.20190         7.54970
   H       -0.17889        11.84024         3.24729
   H       -3.18883        11.71905        -0.50187
   H       -7.44534        16.15464         0.40525
   H       -8.84435        17.99181         1.22107
   H      -11.13588        17.52824         1.23934
   H      -12.41521        21.21591        -2.39917
   H      -13.94093        21.11375        -1.52483
   H      -13.38551        19.73639        -2.49225
   H       -6.34260        20.15711         6.13631
   H       -7.07124        20.46983        10.95667
   H       -8.46200        19.37613        10.91800
   H       -8.71976        21.11823        10.84818
   H      -10.56200        22.16801         6.75368
   H      -13.71865        23.56687         4.89442
   H      -11.49362        24.76516        10.64694
   H      -15.63639        26.83644         8.80751
   H      -15.96408        28.03081        10.87861
   H      -15.24173        28.58961        13.16552
   H      -13.19670        27.58710        14.10297
   H      -11.85752        26.01437        12.76018
*
