# ORCA input file
# SCF done       -218.673278335282          0.000540006762
! CAM-B3LYP def2-SVP def2/J RIJCOSX Grid4 TightSCF
%maxcore 5000
%tddft
    Mode sTDDFT
    Ethresh 5.0
    maxcore 5000
end

%pal
  nprocs 6
  end
* xyz 0 1
   C       -4.44309         0.46263        -0.50698
   O       -3.96224        -0.76546        -0.62570
   C       -4.59353        -1.55424         0.27900
   C       -5.51057        -0.79521         0.99945
   C       -5.40360         0.52834         0.47579
   C       -6.10797         1.79192         0.81481
   F       -5.67264         2.80879         0.05556
   F       -7.44149         1.73584         0.62700
   F       -5.93399         2.18519         2.09201
   O       -6.27041        -1.35134         1.96091
   C       -7.18809        -0.55158         2.67961
   C       -4.29830        -2.94687         0.40218
   C       -3.38907        -3.58630        -0.35594
   C       -3.04290        -4.98698        -0.29489
   C       -3.64582        -5.87999         0.60430
   C       -3.27472        -7.20149         0.59867
   C       -2.29895        -7.67274        -0.29679
   C       -1.69031        -6.80073        -1.18678
   C       -2.06702        -5.47281        -1.17617
   C       -2.12180        -9.09314        -0.08052
   C       -2.98691        -9.49980         0.94948
   C       -3.78885        -8.32769         1.46581
   C       -5.29978        -8.54550         1.26442
   C       -5.67014        -8.80885        -0.19006
   C       -3.49973        -8.06740         2.95586
   C       -2.01987        -7.84040         3.23981
   C       -3.02147       -10.80773         1.36475
   C       -2.18090       -11.74795         0.75033
   C       -1.32866       -11.33004        -0.27754
   C       -1.29091       -10.01560        -0.69767
   C       -2.19131       -13.12993         1.17383
   C       -2.92775       -13.72151         2.15185
   C       -2.68967       -15.11097         2.30744
   C       -1.71797       -15.60357         1.40233
   S       -1.14240       -14.29625         0.38692
   C       -1.34934       -16.93995         1.39996
   O       -0.43543       -17.57356         0.61400
   C        0.28786       -16.84976        -0.35095
   C       -2.00080       -17.77150         2.33014
   C       -2.97549       -17.27870         3.23234
   C       -3.33391       -15.94021         3.24437
   O       -4.23660       -15.30303         4.04218
   C       -4.90791       -16.01382         5.05287
   S       -3.58174       -18.59249         4.21959
   C       -2.53794       -19.76169         3.42873
   C       -1.77849       -19.16550         2.47176
   C       -2.58733       -21.14964         3.82913
   C       -3.53976       -21.57004         4.76712
   C       -3.59973       -22.89191         5.13626
   C       -2.67600       -23.81331         4.61401
   C       -1.72792       -23.40845         3.68619
   C       -1.69591       -22.08604         3.29214
   C       -2.89983       -25.09906         5.24210
   C       -3.96419       -24.96969         6.14949
   C       -4.54192       -23.57108         6.10329
   C       -5.97089       -23.69202         5.52246
   C       -6.66843       -22.37787         5.19694
   C       -4.54564       -22.89707         7.48280
   C       -3.16144       -22.87885         8.12117
   C       -4.37208       -26.04310         6.90210
   C       -3.71279       -27.27145         6.75707
   C       -2.64415       -27.38824         5.86496
   C       -2.23730       -26.30918         5.10391
   C       -4.14937       -28.38620         7.57740
   O       -4.71759       -28.11058         8.75590
   C       -5.05097       -29.27265         9.38822
   C       -4.68950       -30.33473         8.57425
   C       -4.11612       -29.75671         7.40104
   C       -3.65685       -30.51935         6.21332
   F       -3.96640       -29.90235         5.05472
   F       -2.31621       -30.69811         6.18196
   F       -4.19183       -31.74081         6.12967
   O       -4.76905       -31.67128         8.70077
   C       -5.38513       -32.23229         9.83458
   C       -5.67068       -29.15588        10.68499
   C       -5.90394       -27.98711        11.27980
   H       -4.05670         1.22896        -1.14927
   H       -7.66569        -1.22937         3.38506
   H       -7.94911        -0.12317         2.02341
   H       -6.68239         0.24301         3.23295
   H       -4.87623        -3.44623         1.16379
   H       -2.85444        -3.00615        -1.09720
   H       -4.39741        -5.52755         1.29345
   H       -0.93715        -7.15205        -1.87631
   H       -1.60148        -4.78287        -1.86569
   H       -5.83048        -7.65900         1.61832
   H       -5.61665        -9.39164         1.87794
   H       -5.37875        -7.96973        -0.81790
   H       -6.74433        -8.95209        -0.28292
   H       -5.17014        -9.70222        -0.55756
   H       -3.85208        -8.92396         3.53466
   H       -4.06857        -7.19151         3.27512
   H       -1.43528        -8.70959         2.94657
   H       -1.86517        -7.66360         4.30179
   H       -1.65147        -6.97764         2.68926
   H       -3.68692       -11.11440         2.15632
   H       -0.68566       -12.06003        -0.74859
   H       -0.62427        -9.71563        -1.49222
   H       -3.63972       -13.21168         2.77288
   H        0.94982       -17.57745        -0.81920
   H        0.88874       -16.05692         0.10246
   H       -0.36892       -16.41882        -1.11156
   H       -5.53300       -15.27683         5.55606
   H       -4.21035       -16.44741         5.77450
   H       -5.54303       -16.80313         4.64165
   H       -1.06995       -19.67885         1.84966
   H       -4.20895       -20.83896         5.19605
   H       -1.01935       -24.11479         3.28052
   H       -0.96009       -21.76551         2.57174
   H       -6.57450       -24.24867         6.24298
   H       -5.91123       -24.29179         4.61044
   H       -6.74355       -21.73903         6.07296
   H       -7.67653       -22.58508         4.84403
   H       -6.14087       -21.84185         4.41307
   H       -5.24033       -23.43133         8.13431
   H       -4.90224       -21.87157         7.37841
   H       -2.79085       -23.89110         8.26670
   H       -3.20039       -22.38327         9.08859
   H       -2.45643       -22.34410         7.48853
   H       -5.19104       -25.96377         7.60063
   H       -2.10946       -28.31993         5.78552
   H       -1.40899       -26.41011         4.41965
   H       -5.35762       -33.30861         9.67152
   H       -6.42510       -31.90644         9.92622
   H       -4.83397       -31.98997        10.74803
   H       -5.94997       -30.07362        11.17592
   H       -5.63195       -27.05584        10.81538
   H       -6.37001       -27.93585        12.24717
*
