100
 SCF done       -215.323831744539          0.000423880490
C          -1.57554641537555    0.54553260359972   -1.36499356785622
C          -0.88595670863909    1.73458143706442   -1.53434782691201
C          -0.36839381007073    2.36891887055588   -0.40321085376656
C           0.34782275514380    3.58251117472838   -0.55426500232389
N           0.92763910477875    4.56085327972683   -0.68483413709242
C          -0.54008752678712    1.82410710066192    0.88402103763676
C          -0.00253051356693    2.49196570201139    2.01078599978387
N           0.42828256063537    3.01634873520014    2.93306742844661
C          -1.23266381631291    0.62367708474893    1.04912682283271
C          -1.73581290874435    0.00563053889358   -0.07571791766976
C          -2.48274388002963   -1.27129139318296   -0.15465666629842
O          -2.75807935590262   -1.98735416258104    0.78208961623028
C          -2.72471110648369   -1.49434682588440   -1.59786174140175
C          -2.22604633741030   -0.34343131827531   -2.32677205890068
C          -2.40534795184289   -0.07494628824128   -3.65787590824836
C          -1.91770422876215    1.08176652077930   -4.30407140322958
N          -1.54024506596467    1.99813378724012   -4.88192823174234
C          -3.13229470004756   -0.88547336029528   -4.55719030024526
N          -3.72733443528400   -1.48233254171285   -5.33656916581723
C          -3.15812246560069   -2.65399011693576   -2.18683474365622
C          -3.76067661202868   -3.78170149566672   -1.60229215760840
C          -4.39587502510354   -3.96301629299791   -0.37769543455276
C          -4.89147372140325   -5.24908664672311   -0.23175504921053
C          -4.62910058658259   -6.07721321288293   -1.34941837217832
S          -3.81291737681389   -5.25229108794428   -2.58850525139311
C          -5.13064401930923   -7.36996150096700   -1.07654771360539
C          -5.72210699372605   -7.36472044400371    0.20071322647514
C          -5.60389951905874   -6.02849048563786    0.76709589950344
C          -6.07643488731228   -5.60336935592296    1.97262423602201
C          -6.75024863322406   -6.47640790497109    2.85417642313909
N          -7.29417370040380   -7.19225798903034    3.56543197070621
C          -5.95043959603380   -4.26792674962103    2.41545010624670
N          -5.87835928700840   -3.18549885261092    2.78433327884377
C          -6.23425951486174   -8.60686642985742    0.56536003458408
C          -6.02768624769784   -9.55997115381878   -0.41878495634343
S          -5.20191393291301   -8.90683983901132   -1.82299621276107
C          -6.37789365083380  -10.93217191577260   -0.37157354880460
C          -6.07416771760687  -11.91178832045590   -1.30131341341271
C          -6.53529213558189  -13.16516370330627   -0.90490674734519
C          -7.20603181052887  -13.13542408099786    0.33140162177633
S          -7.26409889875213  -11.56916332657649    1.00659551017439
C          -7.60567231855068  -14.45420852687621    0.66031676484394
C          -7.17710609493679  -15.32148188112155   -0.36141692077496
C          -6.50186173961130  -14.53833271241029   -1.38488260435714
C          -5.94982481417381  -14.99423833143138   -2.54482408134676
C          -5.97392108681699  -16.36097263249810   -2.89669171942501
N          -5.99432100709068  -17.47261448817652   -3.17517987472115
C          -5.31894270329524  -14.12674993067400   -3.46229647274587
N          -4.80635990005875  -13.41669967780344   -4.20182819845939
C          -7.49189597000045  -16.65482157835919   -0.10768534864061
C          -8.16418218254007  -16.80702985534123    1.09256361030301
S          -8.41465945326963  -15.27497410124973    1.91845981087126
C          -8.60866237058470  -18.01267109561785    1.68996990294271
C          -9.37646012696651  -18.14615186810779    2.83577756867652
C          -9.59867591906483  -19.48166902601855    3.15854459644457
C          -8.98708281007533  -20.37257681053116    2.25681953962006
S          -8.15782577661672  -19.56210579155604    1.00007786235454
C          -9.24490701615744  -21.69426143464204    2.68487657917207
C         -10.02834941164237  -21.64455775134192    3.85979518080224
C         -10.28147748491811  -20.25180776081220    4.18840870808959
C         -10.99985371439092  -19.76371765223267    5.23888051058504
C         -11.61465169161733  -20.61013371476649    6.18690512723133
N         -12.10926589896044  -21.29417077592314    6.96198072820231
C         -11.16764585054928  -18.37766335372560    5.44695638409348
N         -11.29735760549120  -17.25079284945310    5.61203590139970
C         -10.30286130642316  -22.90288163903180    4.37496424234069
C          -9.76251089764792  -23.92409367109981    3.60019413919050
S          -8.86413180140216  -23.28407367982870    2.22113327262845
C          -9.79755627168056  -25.29203561947605    3.93237514217709
C          -9.42241461246073  -26.38752713539046    3.21064895625817
C          -9.05797857566627  -27.63504469128473    3.93280648331963
O          -9.27939489974541  -27.90242166046220    5.08880204462536
C          -8.30464458615694  -28.44197019725521    2.94223894753870
C          -7.62599675068179  -29.62631732228798    3.13452326763482
C          -6.94535196691217  -30.17826978523599    2.04734862819908
C          -6.95934427515881  -29.52898800618016    0.79789927373447
C          -7.66269412867860  -28.33723217771588    0.60973762003485
C          -8.33915062212322  -27.79806852687333    1.68928398867893
C          -9.17309193885712  -26.60064124620920    1.80339409299492
C          -9.82948541095317  -25.99753904323294    0.76323317308121
C         -10.85995765362916  -25.05357806702116    0.95629483557307
N         -11.72878341573729  -24.31620423319762    1.09160694299842
C          -9.62251247377991  -26.32689173303500   -0.59214309115160
N          -9.46966070384328  -26.55450291827288   -1.70604171122447
C          -6.24028106775204  -30.09115699158493   -0.28628382344525
N          -5.65624614908102  -30.53381301283359   -1.16570540577051
C          -6.23030410044774  -31.39038410865416    2.20420598707736
N          -5.65580531452208  -32.36990174451537    2.35092634635083
H          -0.72992340024110    2.17988448642411   -2.50395960056747
H          -1.37159742311817    0.18975974888851    2.02771028228820
H          -2.99442662035866   -2.74830402330779   -3.25427847295946
H          -4.48169966803073   -3.18400515840896    0.35645420097216
H          -6.72445347823988   -8.82820224350097    1.49642500565369
H          -5.53429191645073  -11.70682253654922   -2.20839906323006
H          -7.25265112803283  -17.48295627188948   -0.75054637921098
H          -9.74586241301109  -17.30247593546354    3.39066440661313
H         -10.87885455744696  -23.09754731781428    5.26174721369003
H         -10.07108556437670  -25.50201776059588    4.96279638130231
H          -7.61863725189545  -30.11153611047989    4.09868887578820
H          -7.65133403515928  -27.86153610508029   -0.35848458854698
