# ORCA input file
# SCF done       -215.323831744539          0.000423880490
! CAM-B3LYP def2-SVP def2/J RIJCOSX Grid4 TightSCF
%maxcore 5000
%tddft
    Mode sTDDFT
    Ethresh 5.0
    maxcore 5000
end

%pal
  nprocs 6
  end
* xyz 0 1
   C       -1.57555         0.54553        -1.36499
   C       -0.88596         1.73458        -1.53435
   C       -0.36839         2.36892        -0.40321
   C        0.34782         3.58251        -0.55427
   N        0.92764         4.56085        -0.68483
   C       -0.54009         1.82411         0.88402
   C       -0.00253         2.49197         2.01079
   N        0.42828         3.01635         2.93307
   C       -1.23266         0.62368         1.04913
   C       -1.73581         0.00563        -0.07572
   C       -2.48274        -1.27129        -0.15466
   O       -2.75808        -1.98735         0.78209
   C       -2.72471        -1.49435        -1.59786
   C       -2.22605        -0.34343        -2.32677
   C       -2.40535        -0.07495        -3.65788
   C       -1.91770         1.08177        -4.30407
   N       -1.54025         1.99813        -4.88193
   C       -3.13229        -0.88547        -4.55719
   N       -3.72733        -1.48233        -5.33657
   C       -3.15812        -2.65399        -2.18683
   C       -3.76068        -3.78170        -1.60229
   C       -4.39588        -3.96302        -0.37770
   C       -4.89147        -5.24909        -0.23176
   C       -4.62910        -6.07721        -1.34942
   S       -3.81292        -5.25229        -2.58851
   C       -5.13064        -7.36996        -1.07655
   C       -5.72211        -7.36472         0.20071
   C       -5.60390        -6.02849         0.76710
   C       -6.07643        -5.60337         1.97262
   C       -6.75025        -6.47641         2.85418
   N       -7.29417        -7.19226         3.56543
   C       -5.95044        -4.26793         2.41545
   N       -5.87836        -3.18550         2.78433
   C       -6.23426        -8.60687         0.56536
   C       -6.02769        -9.55997        -0.41878
   S       -5.20191        -8.90684        -1.82300
   C       -6.37789       -10.93217        -0.37157
   C       -6.07417       -11.91179        -1.30131
   C       -6.53529       -13.16516        -0.90491
   C       -7.20603       -13.13542         0.33140
   S       -7.26410       -11.56916         1.00660
   C       -7.60567       -14.45421         0.66032
   C       -7.17711       -15.32148        -0.36142
   C       -6.50186       -14.53833        -1.38488
   C       -5.94982       -14.99424        -2.54482
   C       -5.97392       -16.36097        -2.89669
   N       -5.99432       -17.47261        -3.17518
   C       -5.31894       -14.12675        -3.46230
   N       -4.80636       -13.41670        -4.20183
   C       -7.49190       -16.65482        -0.10769
   C       -8.16418       -16.80703         1.09256
   S       -8.41466       -15.27497         1.91846
   C       -8.60866       -18.01267         1.68997
   C       -9.37646       -18.14615         2.83578
   C       -9.59868       -19.48167         3.15854
   C       -8.98708       -20.37258         2.25682
   S       -8.15783       -19.56211         1.00008
   C       -9.24491       -21.69426         2.68488
   C      -10.02835       -21.64456         3.85980
   C      -10.28148       -20.25181         4.18841
   C      -10.99985       -19.76372         5.23888
   C      -11.61465       -20.61013         6.18691
   N      -12.10927       -21.29417         6.96198
   C      -11.16765       -18.37766         5.44696
   N      -11.29736       -17.25079         5.61204
   C      -10.30286       -22.90288         4.37496
   C       -9.76251       -23.92409         3.60019
   S       -8.86413       -23.28407         2.22113
   C       -9.79756       -25.29204         3.93238
   C       -9.42241       -26.38753         3.21065
   C       -9.05798       -27.63504         3.93281
   O       -9.27939       -27.90242         5.08880
   C       -8.30464       -28.44197         2.94224
   C       -7.62600       -29.62632         3.13452
   C       -6.94535       -30.17827         2.04735
   C       -6.95934       -29.52899         0.79790
   C       -7.66269       -28.33723         0.60974
   C       -8.33915       -27.79807         1.68928
   C       -9.17309       -26.60064         1.80339
   C       -9.82949       -25.99754         0.76323
   C      -10.85996       -25.05358         0.95629
   N      -11.72878       -24.31620         1.09161
   C       -9.62251       -26.32689        -0.59214
   N       -9.46966       -26.55450        -1.70604
   C       -6.24028       -30.09116        -0.28628
   N       -5.65625       -30.53381        -1.16571
   C       -6.23030       -31.39038         2.20421
   N       -5.65581       -32.36990         2.35093
   H       -0.72992         2.17988        -2.50396
   H       -1.37160         0.18976         2.02771
   H       -2.99443        -2.74830        -3.25428
   H       -4.48170        -3.18401         0.35645
   H       -6.72445        -8.82820         1.49643
   H       -5.53429       -11.70682        -2.20840
   H       -7.25265       -17.48296        -0.75055
   H       -9.74586       -17.30248         3.39066
   H      -10.87885       -23.09755         5.26175
   H      -10.07109       -25.50202         4.96280
   H       -7.61864       -30.11154         4.09869
   H       -7.65133       -27.86154        -0.35848
*
