99
 SCF done       -204.812910721102          0.000429778196
C          -2.33531902991398    1.56658160049689    0.73369041175539
C          -3.54634320668044    0.97491951499157    0.39869477680611
C          -3.78786574334534    0.49149013942252   -0.87973716067056
C          -2.81077811049322    0.57288028976690   -1.86213275669095
C          -1.60137429124131    1.15402939626843   -1.53275970975321
C          -1.35811473206761    1.66307995481625   -0.24321986547678
C          -0.01777755412467    2.24716896800487   -0.20967400111216
C           0.40211742902415    3.19271491994427    0.68793995125507
C          -0.36775845724047    3.63359050163243    1.78578104621374
N          -0.95282719162015    4.03648045427131    2.68653931501460
C           1.61011937456860    3.90746166433745    0.56899970764729
N           2.57408662038297    4.52720271071781    0.49836822792680
C           0.64566986945230    1.85734566275854   -1.43632169012500
C          -0.39808012510148    1.33229961079999   -2.36684920665447
O          -0.24993844051843    1.07203147840718   -3.53786468504647
C           1.94917184877084    1.80619476508565   -1.82422949622550
C           3.11410145769870    1.86668442685575   -1.02811412141609
C           3.25141279860211    1.65120323308641    0.33557196241259
C           4.57197424915096    1.74906396130019    0.75285464903244
C           5.46190279156517    2.03847858770917   -0.30183377033181
S           4.66746361081228    2.17047900249297   -1.79969917789942
C           6.77286746311884    2.11406160763707    0.23016532887014
C           6.71268712416261    1.87629876138940    1.61491901589088
C           5.32446657263816    1.65614611598311    1.99106782742593
C           4.82310916857416    1.43541805855331    3.23988580230510
C           5.65075483232630    1.37314646313993    4.38054865715164
N           6.33067441390948    1.31734372381215    5.30189521500968
C           3.44017653908212    1.25445988669346    3.45482525825107
N           2.31453351677103    1.10301775490005    3.61183414943375
C           7.96471703022576    1.89945643730471    2.22572839316795
C           8.97772134910453    2.15122654301683    1.31665515591850
S           8.37013228676939    2.37678077581892   -0.31607096638338
C          10.37182698825958    2.19354781001086    1.56925618176762
C          11.38647836634557    2.44179037520006    0.66230406369500
C          12.64628097099365    2.34339549604486    1.25089059613895
C          12.58804450208095    2.01891290949572    2.61767418770530
S          10.98559135704900    1.84716189455162    3.18037694595032
C          13.91154129643908    1.89640856764341    3.11021403534913
C          14.80718785200381    2.14371121087368    2.05516855893093
C          14.04232339709298    2.44635716338693    0.85524427236409
C          14.53057416132674    2.75603357062717   -0.37946184464186
C          15.91551715388500    2.82642290377837   -0.64100412059458
N          17.04130170567494    2.88118738522607   -0.85043482761513
C          13.68187288769111    3.02775735107870   -1.47366545065723
N          12.99048819558841    3.24730939954773   -2.36137164507104
C          16.14180131661803    2.00239311458965    2.43189095323339
C          16.26795663734171    1.64829743821199    3.76330208852456
S          14.71075300889732    1.50128681380232    4.56622440854068
C          17.46292875989376    1.37194310284244    4.47384439283145
C          17.58837628358285    1.01246855478675    5.80453228058905
C          18.91523451553141    0.77020982182297    6.15428507462383
C          19.80631382980251    0.94562869606158    5.08072124615762
S          19.01112702258213    1.41795743473985    3.64485862009889
C          21.11756472181785    0.64199523471206    5.52349835725963
C          21.05303470851496    0.28039962109904    6.88434453440970
C          19.67044962674909    0.34479947223560    7.32300791881530
C          19.18743170298084    0.02926941435175    8.55862503384373
C          20.04356179259909   -0.40082494442695    9.59465277465207
N          20.75252509860047   -0.74491056216252   10.42749267428864
C          17.81441473681688    0.11312951827240    8.87113202160822
N          16.69837941614814    0.19138061751586    9.12138613584492
C          22.28608482846279   -0.09162205763209    7.40432638298135
C          23.29586355052510   -0.02934035691738    6.45576664627858
S          22.69816569238496    0.54678868517620    4.90303520876621
C          24.66947903349834   -0.32868508598050    6.59553334660665
C          25.28965600800630   -1.07386357751973    7.55011859164231
C          24.81816775676705   -1.99405188748088    8.56515308392230
C          23.70965843321208   -2.79839717360963    8.49772131327682
C          23.38642647543375   -3.77461377084434    9.46391317081475
N          23.07889971122284   -4.58634129872105   10.21424100564115
C          22.81479139935313   -2.82261929347902    7.41126223421936
N          22.07235596897840   -2.89896460393040    6.53830565683440
C          25.88383902320868   -2.12819375311285    9.55209893987285
C          27.06027195262992   -1.52139124630418    9.03968916907162
C          26.76291221718997   -0.91332116329752    7.73256374785750
O          27.52218529023318   -0.35568440841505    6.97393270814043
C          28.25040781896682   -1.52847060760073    9.72700478163245
C          28.27738595789951   -2.14857135487478   10.97983748718632
C          27.09188696360833   -2.73163272218591   11.49078156091324
C          25.88959204431437   -2.73403598912722   10.79298868992845
S          27.35708780935163   -3.42360027523243   13.05882587996185
C          29.01824349348348   -2.94434645588548   13.01650411497284
C          29.36600709376931   -2.29263592621877   11.88535098652313
H          -2.16575844979182    1.92475513981953    1.73629208752655
H          -4.31463222723590    0.89066452823336    1.15240619515765
H          -4.74309707887498    0.04413422808081   -1.10938772725058
H          -2.97697258426341    0.19620601421047   -2.85956896589655
H           2.10214201080159    1.62013937782870   -2.88317722969451
H           2.42764982709093    1.38736671483968    0.97324917873276
H           8.14743056496928    1.73721130401745    3.27295175474316
H          11.20007132576577    2.67262259935517   -0.37123038355193
H          16.98820466945238    2.13754796275105    1.78263698715035
H          16.74656542690603    0.92990748895765    6.46856865256595
H          22.46182713914490   -0.36005618758092    8.43004993264389
H          25.33821940958496    0.14116038326676    5.88030927269781
H          29.13321411451063   -1.06932772000931    9.31001205341527
H          25.00902954954629   -3.18122152619101   11.22392489818953
H          29.64207032867616   -3.18364402508879   13.85570876196632
H          30.35416197394163   -1.92054831657523   11.68393211214554
