# ORCA input file
# SCF done       -204.812910721102          0.000429778196
! CAM-B3LYP def2-SVP def2/J RIJCOSX Grid4 TightSCF
%maxcore 5000
%tddft
    Mode sTDDFT
    Ethresh 5.0
    maxcore 5000
end

%pal
  nprocs 6
  end
* xyz 0 1
   C       -2.33532         1.56658         0.73369
   C       -3.54634         0.97492         0.39869
   C       -3.78787         0.49149        -0.87974
   C       -2.81078         0.57288        -1.86213
   C       -1.60137         1.15403        -1.53276
   C       -1.35811         1.66308        -0.24322
   C       -0.01778         2.24717        -0.20967
   C        0.40212         3.19271         0.68794
   C       -0.36776         3.63359         1.78578
   N       -0.95283         4.03648         2.68654
   C        1.61012         3.90746         0.56900
   N        2.57409         4.52720         0.49837
   C        0.64567         1.85735        -1.43632
   C       -0.39808         1.33230        -2.36685
   O       -0.24994         1.07203        -3.53786
   C        1.94917         1.80619        -1.82423
   C        3.11410         1.86668        -1.02811
   C        3.25141         1.65120         0.33557
   C        4.57197         1.74906         0.75285
   C        5.46190         2.03848        -0.30183
   S        4.66746         2.17048        -1.79970
   C        6.77287         2.11406         0.23017
   C        6.71269         1.87630         1.61492
   C        5.32447         1.65615         1.99107
   C        4.82311         1.43542         3.23989
   C        5.65075         1.37315         4.38055
   N        6.33067         1.31734         5.30190
   C        3.44018         1.25446         3.45483
   N        2.31453         1.10302         3.61183
   C        7.96472         1.89946         2.22573
   C        8.97772         2.15123         1.31666
   S        8.37013         2.37678        -0.31607
   C       10.37183         2.19355         1.56926
   C       11.38648         2.44179         0.66230
   C       12.64628         2.34340         1.25089
   C       12.58804         2.01891         2.61767
   S       10.98559         1.84716         3.18038
   C       13.91154         1.89641         3.11021
   C       14.80719         2.14371         2.05517
   C       14.04232         2.44636         0.85524
   C       14.53057         2.75603        -0.37946
   C       15.91552         2.82642        -0.64100
   N       17.04130         2.88119        -0.85043
   C       13.68187         3.02776        -1.47367
   N       12.99049         3.24731        -2.36137
   C       16.14180         2.00239         2.43189
   C       16.26796         1.64830         3.76330
   S       14.71075         1.50129         4.56622
   C       17.46293         1.37194         4.47384
   C       17.58838         1.01247         5.80453
   C       18.91523         0.77021         6.15429
   C       19.80631         0.94563         5.08072
   S       19.01113         1.41796         3.64486
   C       21.11756         0.64200         5.52350
   C       21.05303         0.28040         6.88434
   C       19.67045         0.34480         7.32301
   C       19.18743         0.02927         8.55863
   C       20.04356        -0.40082         9.59465
   N       20.75253        -0.74491        10.42749
   C       17.81441         0.11313         8.87113
   N       16.69838         0.19138         9.12139
   C       22.28608        -0.09162         7.40433
   C       23.29586        -0.02934         6.45577
   S       22.69817         0.54679         4.90304
   C       24.66948        -0.32869         6.59553
   C       25.28966        -1.07386         7.55012
   C       24.81817        -1.99405         8.56515
   C       23.70966        -2.79840         8.49772
   C       23.38643        -3.77461         9.46391
   N       23.07890        -4.58634        10.21424
   C       22.81479        -2.82262         7.41126
   N       22.07236        -2.89896         6.53831
   C       25.88384        -2.12819         9.55210
   C       27.06027        -1.52139         9.03969
   C       26.76291        -0.91332         7.73256
   O       27.52219        -0.35568         6.97393
   C       28.25041        -1.52847         9.72700
   C       28.27739        -2.14857        10.97984
   C       27.09189        -2.73163        11.49078
   C       25.88959        -2.73404        10.79299
   S       27.35709        -3.42360        13.05883
   C       29.01824        -2.94435        13.01650
   C       29.36601        -2.29264        11.88535
   H       -2.16576         1.92476         1.73629
   H       -4.31463         0.89066         1.15241
   H       -4.74310         0.04413        -1.10939
   H       -2.97697         0.19621        -2.85957
   H        2.10214         1.62014        -2.88318
   H        2.42765         1.38737         0.97325
   H        8.14743         1.73721         3.27295
   H       11.20007         2.67262        -0.37123
   H       16.98820         2.13755         1.78264
   H       16.74657         0.92991         6.46857
   H       22.46183        -0.36006         8.43005
   H       25.33822         0.14116         5.88031
   H       29.13321        -1.06933         9.31001
   H       25.00903        -3.18122        11.22392
   H       29.64207        -3.18364        13.85571
   H       30.35416        -1.92055        11.68393
*
