# ORCA input file
# SCF done       -193.138989925059          0.000717293749
! CAM-B3LYP def2-SVP def2/J RIJCOSX Grid4 TightSCF
%maxcore 5000
%tddft
    Mode sTDDFT
    Ethresh 5.0
    maxcore 5000
end

%pal
  nprocs 6
  end
* xyz 0 1
   C        0.14708        -0.54103         3.23190
   O        1.03599        -0.02914         2.58709
   C       -1.21783        -0.05775         3.40024
   C       -1.97378        -0.92140         4.18226
   C       -3.29848        -0.47516         4.35448
   C       -3.50288         0.70317         3.69880
   S       -2.11278         1.29569         2.86824
   C       -1.14167        -2.03379         4.59099
   C       -1.55188        -3.03890         5.42651
   C       -2.86932        -3.08578         5.93216
   N       -3.93387        -3.14735         6.35519
   C       -0.76648        -4.10836         5.90135
   N       -0.19056        -5.00252         6.33548
   C        0.17216        -1.82896         3.98939
   C        1.18085        -2.74587         4.05336
   C        2.51554        -2.69153         3.59754
   C        3.31317        -1.65053         3.14231
   C        4.60247        -2.07103         2.84235
   C        4.80041        -3.45359         3.05772
   S        3.40915        -4.21980         3.65803
   C        6.12759        -3.78041         2.69083
   C        6.77430        -2.61177         2.25232
   C        5.84241        -1.49621         2.34784
   C        6.10125        -0.18988         2.05819
   C        5.15471         0.84391         2.23286
   N        4.41911         1.70924         2.38463
   C        7.36349         0.22761         1.58317
   N        8.38916         0.56392         1.19660
   C        8.09335        -2.83559         1.86370
   C        8.45350        -4.16545         1.99914
   S        7.14315        -5.15420         2.62238
   C        9.70623        -4.75236         1.69042
   C       10.06517        -6.08411         1.79763
   C       11.38216        -6.30204         1.39581
   C       12.02980        -5.12468         0.98221
   S       11.02026        -3.75242         1.08562
   C       13.35342        -5.44943         0.59272
   C       13.54300        -6.83261         0.75731
   C       12.31146        -7.41418         1.26903
   C       12.07790        -8.72387         1.56715
   C       10.83292        -9.16828         2.06118
   N        9.82071        -9.52740         2.46201
   C       13.06694        -9.71697         1.40265
   N       13.87119       -10.52259         1.26707
   C       14.82202        -7.25190         0.39396
   C       15.60585        -6.19903        -0.04285
   S       14.74709        -4.66534        -0.00457
   C       16.95015        -6.24731        -0.49025
   C       17.73661        -5.18626        -0.90420
   C       19.01355        -5.60068        -1.27693
   C       19.19947        -6.98838        -1.14887
   S       17.80284        -7.78102        -0.56639
   C       20.51786        -7.30988        -1.55868
   C       21.16629        -6.11819        -1.93930
   C       20.24200        -5.00953        -1.78564
   C       20.47358        -3.70106        -2.09200
   C       19.49299        -2.70307        -1.91204
   N       18.69295        -1.89669        -1.75729
   C       21.71645        -3.27669        -2.60806
   N       22.73348        -2.94762        -3.02283
   C       22.46363        -6.32808        -2.39060
   C       22.81536        -7.66847        -2.36998
   S       21.51650        -8.67516        -1.73821
   C       24.04470        -8.26908        -2.72805
   C       25.03109        -7.78323        -3.52627
   C       26.39338        -8.40749        -3.42791
   O       26.66989        -9.43790        -2.86025
   C       27.25683        -7.46220        -4.12242
   C       26.51787        -6.43302        -4.69706
   C       25.10619        -6.66952        -4.45749
   C       24.09837        -6.09401        -5.18532
   C       24.35376        -5.08447        -6.13882
   N       24.54134        -4.26488        -6.91864
   C       22.74766        -6.48673        -5.14730
   N       21.64054        -6.78979        -5.17788
   C       27.32288        -5.50133        -5.37830
   C       28.64033        -5.84488        -5.29425
   S       28.93302        -7.29654        -4.41168
   H       -4.05715        -0.98333         4.91983
   H       -4.41216         1.27042         3.65663
   H        0.93357        -3.69098         4.52357
   H        2.94813        -0.64564         3.03296
   H        8.76910        -2.08444         1.49597
   H        9.38953        -6.84288         2.14986
   H       15.17996        -8.26486         0.43890
   H       17.38251        -4.17113        -0.92671
   H       23.14407        -5.54783        -2.67894
   H       24.26719        -9.22359        -2.26034
   H       26.96287        -4.62801        -5.88954
   H       29.47454        -5.31811        -5.71490
*
