96
 SCF done       -214.158847920779          0.000920766700
C          -1.12346707790437   -0.17192045427362   -2.57969093564025
C          -1.03546722561340    1.01522172312595   -1.86845868406413
F          -1.73861807884609    2.07249912247040   -2.28592143392739
C          -0.23151900426802    1.13365679821051   -0.73303823636532
F          -0.17909520347991    2.29889985373592   -0.07947814838048
C           0.51249375959933    0.05655251530065   -0.28010256968036
C           0.42460605534182   -1.12498356466098   -0.98989401870071
C          -0.38220092708324   -1.25483505650436   -2.13157093204812
C          -0.26016861684068   -2.61980086929533   -2.63955116973897
C          -0.99167352816477   -3.14526367407009   -3.67117941655826
C          -1.92569381362224   -2.40929892995064   -4.43307858364478
N          -2.68984060609349   -1.86853091385744   -5.09633643312693
C          -0.95587152441960   -4.48750486154940   -4.10829597903920
N          -1.00417363259031   -5.56093803724235   -4.51326070071339
C           0.70507202091326   -3.31661570783876   -1.80578083359819
C           1.12002131260213   -2.40179435135516   -0.71686087507947
O           1.89935531209214   -2.60396969641381    0.18746186732582
C           1.22287024146079   -4.54937725599899   -2.10217282131129
C           2.08017893151889   -5.38649490159842   -1.36435108613214
C           2.49068765522445   -5.37743298708773   -0.03524756040368
C           3.30948958153357   -6.45540783571142    0.26668946045003
C           3.54495868621813   -7.30215776489586   -0.84237690357196
S           2.73189093583433   -6.78347084289555   -2.23845575454595
C           4.40642138184569   -8.34594518672479   -0.43542805848502
C           4.71145719048967   -8.17606335213426    0.92741366080543
C           4.02517293416027   -6.98734796654185    1.41538993545816
C           4.04215315978074   -6.49762825503399    2.68702571765156
C           4.79154435545172   -7.11871601321405    3.70985551835363
N           5.40419661060081   -7.62622203794849    4.53531453886193
C           3.30523951804138   -5.35981510888351    3.08422472169203
N           2.70061717916564   -4.45355490863917    3.43871200181907
C           5.55576756733588   -9.16853558228796    1.42051523042453
C           5.90093172243738  -10.08575998060347    0.44183209428022
S           5.16602632904019   -9.72011854744713   -1.11024654184654
C           6.73769303566758  -11.22198060557393    0.57291584288316
C           7.13011273829187  -12.08944541101537   -0.43158108729426
C           7.95118050484250  -13.10591546997911    0.05023820766295
C           8.18217443430740  -13.01481510316598    1.43504613072567
S           7.39660946267632  -11.67195488134417    2.13935870598476
C           9.00926200288707  -14.09765963911265    1.82623914316054
C           9.30362719676975  -14.87010546417538    0.68770207257931
C           8.65703653853949  -14.26734677221291   -0.46702809098638
C           8.71147832590082  -14.69287401953414   -1.76097500353773
C           9.44816442689062  -15.83499986448038   -2.14145209526755
N          10.05330454053451  -16.75916338682082   -2.44749266332682
C           8.04088398563666  -14.01202686864581   -2.79958271338801
N           7.49840916876949  -13.45172296339473   -3.63965569920246
C          10.10194837259065  -15.97512842031484    0.97230159760097
C          10.41771261091479  -16.05200285145412    2.31773040711806
S           9.71977765941406  -14.73078153499092    3.24406983039898
C          11.18953131134781  -17.05168950646786    2.95989571585530
C          11.51398383929856  -17.13833717164255    4.30406365022447
C          12.27274286277466  -18.27249103145713    4.58235188137305
C          12.52683888970986  -19.05432207776891    3.44092111811567
S          11.83543872810754  -18.39105617065368    2.02635983587992
C          13.28037104543830  -20.18600865755787    3.82723456080463
C          13.51494950931391  -20.12051833532268    5.21721718717273
C          12.89008755927713  -18.91498371659787    5.73492606788306
C          12.87994704891972  -18.47355292553427    7.02450037130569
C          13.52489067870399  -19.17639993106953    8.06514937926771
N          14.05385200523637  -19.73950201757326    8.91153104806361
C          12.23033707751340  -17.27744128227314    7.39808331966739
N          11.70404270314773  -16.30351924399779    7.69539033185750
C          14.25675581011465  -21.19747601076714    5.68695311618570
C          14.55695286066738  -22.10964886060864    4.68450681249663
S          13.95433360999866  -21.57406248297354    3.11437858986276
C          15.33121650008195  -23.28019622395888    4.83969258698559
C          15.44944482449470  -24.35711029683437    4.01400469116266
C          16.65232840855806  -25.22821950996560    4.11297833866089
O          17.46511596731726  -25.24795057778436    5.00484455077397
C          16.66075384100159  -26.00816199347226    2.85351612012794
C          15.48935678035464  -25.73671577078537    2.12362441316560
C          15.28370736138274  -26.32840418145692    0.88821613331496
C          16.26261005587042  -27.18671028876281    0.40995368596737
C          17.41715350307135  -27.46271505958560    1.14525645298125
C          17.62900451696612  -26.87256944234085    2.38119681165128
F          18.33030089411216  -28.30322494281278    0.64806345080160
F          16.09517090723380  -27.75864075711510   -0.78582645405392
C          14.64777540057641  -24.83325675337318    2.90692124869864
C          13.28962484242218  -24.71199832534728    2.78009696357641
C          12.47941269918398  -24.07357406296427    3.74271030989504
N          11.78872017489642  -23.59634694001938    4.52535476387741
C          12.54366644317789  -25.28588742691912    1.72982756651790
N          11.89525082407735  -25.71875806207637    0.88832216049956
H          -1.75601047801757   -0.20928396167141   -3.45120807631481
H           1.13526454250256    0.14078913577184    0.59625623884868
H           0.95291549416085   -4.96160341976447   -3.06766357622042
H           2.19885211576637   -4.60818394426074    0.65594677502896
H           5.91408264364212   -9.23463169954659    2.43214466270731
H           6.82462267094964  -11.97139057541776   -1.45575954113779
H          10.44154867270016  -16.69769449200853    0.25203923076013
H          11.20164990434592  -16.40589201963797    5.02669677880677
H          14.54855911657330  -21.35008924091774    6.71040849645498
H          15.98963455763935  -23.28842264567579    5.70358912321451
H          14.40931328796554  -26.14155584582369    0.28607477577077
H          18.52069978002215  -27.08556336514031    2.94893667838730
