# ORCA input file
# SCF done       -214.158847920779          0.000920766700
! CAM-B3LYP def2-SVP def2/J RIJCOSX Grid4 TightSCF
%maxcore 5000
%tddft
    Mode sTDDFT
    Ethresh 5.0
    maxcore 5000
end

%pal
  nprocs 6
  end
* xyz 0 1
   C       -1.12347        -0.17192        -2.57969
   C       -1.03547         1.01522        -1.86846
   F       -1.73862         2.07250        -2.28592
   C       -0.23152         1.13366        -0.73304
   F       -0.17910         2.29890        -0.07948
   C        0.51249         0.05655        -0.28010
   C        0.42461        -1.12498        -0.98989
   C       -0.38220        -1.25484        -2.13157
   C       -0.26017        -2.61980        -2.63955
   C       -0.99167        -3.14526        -3.67118
   C       -1.92569        -2.40930        -4.43308
   N       -2.68984        -1.86853        -5.09634
   C       -0.95587        -4.48750        -4.10830
   N       -1.00417        -5.56094        -4.51326
   C        0.70507        -3.31662        -1.80578
   C        1.12002        -2.40179        -0.71686
   O        1.89936        -2.60397         0.18746
   C        1.22287        -4.54938        -2.10217
   C        2.08018        -5.38649        -1.36435
   C        2.49069        -5.37743        -0.03525
   C        3.30949        -6.45541         0.26669
   C        3.54496        -7.30216        -0.84238
   S        2.73189        -6.78347        -2.23846
   C        4.40642        -8.34595        -0.43543
   C        4.71146        -8.17606         0.92741
   C        4.02517        -6.98735         1.41539
   C        4.04215        -6.49763         2.68703
   C        4.79154        -7.11872         3.70986
   N        5.40420        -7.62622         4.53531
   C        3.30524        -5.35982         3.08422
   N        2.70062        -4.45355         3.43871
   C        5.55577        -9.16854         1.42052
   C        5.90093       -10.08576         0.44183
   S        5.16603        -9.72012        -1.11025
   C        6.73769       -11.22198         0.57292
   C        7.13011       -12.08945        -0.43158
   C        7.95118       -13.10592         0.05024
   C        8.18217       -13.01482         1.43505
   S        7.39661       -11.67195         2.13936
   C        9.00926       -14.09766         1.82624
   C        9.30363       -14.87011         0.68770
   C        8.65704       -14.26735        -0.46703
   C        8.71148       -14.69287        -1.76098
   C        9.44816       -15.83500        -2.14145
   N       10.05330       -16.75916        -2.44749
   C        8.04088       -14.01203        -2.79958
   N        7.49841       -13.45172        -3.63966
   C       10.10195       -15.97513         0.97230
   C       10.41771       -16.05200         2.31773
   S        9.71978       -14.73078         3.24407
   C       11.18953       -17.05169         2.95990
   C       11.51398       -17.13834         4.30406
   C       12.27274       -18.27249         4.58235
   C       12.52684       -19.05432         3.44092
   S       11.83544       -18.39106         2.02636
   C       13.28037       -20.18601         3.82723
   C       13.51495       -20.12052         5.21722
   C       12.89009       -18.91498         5.73493
   C       12.87995       -18.47355         7.02450
   C       13.52489       -19.17640         8.06515
   N       14.05385       -19.73950         8.91153
   C       12.23034       -17.27744         7.39808
   N       11.70404       -16.30352         7.69539
   C       14.25676       -21.19748         5.68695
   C       14.55695       -22.10965         4.68451
   S       13.95433       -21.57406         3.11438
   C       15.33122       -23.28020         4.83969
   C       15.44944       -24.35711         4.01400
   C       16.65233       -25.22822         4.11298
   O       17.46512       -25.24795         5.00484
   C       16.66075       -26.00816         2.85352
   C       15.48936       -25.73672         2.12362
   C       15.28371       -26.32840         0.88822
   C       16.26261       -27.18671         0.40995
   C       17.41715       -27.46272         1.14526
   C       17.62900       -26.87257         2.38120
   F       18.33030       -28.30322         0.64806
   F       16.09517       -27.75864        -0.78583
   C       14.64778       -24.83326         2.90692
   C       13.28962       -24.71200         2.78010
   C       12.47941       -24.07357         3.74271
   N       11.78872       -23.59635         4.52535
   C       12.54367       -25.28589         1.72983
   N       11.89525       -25.71876         0.88832
   H       -1.75601        -0.20928        -3.45121
   H        1.13526         0.14079         0.59626
   H        0.95292        -4.96160        -3.06766
   H        2.19885        -4.60818         0.65595
   H        5.91408        -9.23463         2.43214
   H        6.82462       -11.97139        -1.45576
   H       10.44155       -16.69769         0.25204
   H       11.20165       -16.40589         5.02670
   H       14.54856       -21.35009         6.71041
   H       15.98963       -23.28842         5.70359
   H       14.40931       -26.14156         0.28607
   H       18.52070       -27.08556         2.94894
*
