90
 SCF done       -202.154866932317          0.000817377466
C         -13.19521817140040   -3.25888927859960   -1.47839828476275
C         -12.90964012371436   -4.25539946026106   -2.40194672677771
C         -11.56242266877905   -4.47753863824717   -2.87135556826449
N         -11.31218604997117   -5.44605337507284   -3.75716795877899
C         -12.29542468165758   -6.19409763893374   -4.19738742483118
C         -13.63765015951932   -5.97095107935878   -3.73055994679581
N         -13.91249564540292   -5.03298220408151   -2.86682103605078
C         -14.68572685097486   -6.79547821340595   -4.21903335631697
N         -15.50306096586479   -7.48025371734614   -4.63518146178025
C         -12.02004557770313   -7.22228242792257   -5.12946533246908
N         -11.82525364717979   -8.06258867034410   -5.88352110345230
C         -10.46679830714691   -3.70360118126381   -2.41812381581566
C         -10.77507120452867   -2.69580697951040   -1.47880465374486
C         -12.13478137318310   -2.48429051121113   -1.02060675045332
N         -12.20268757100899   -1.48253384841900   -0.13404932993885
S         -10.73882554245046   -0.88336708807961    0.09281595923739
N          -9.92729045788373   -1.84020967311640   -0.90409734495348
C          -9.15226731400417   -3.96308604383705   -2.88413641142966
C          -7.98564874344976   -3.32161979257998   -2.48529698653612
C          -6.86519964708755   -3.84639768558974   -3.11224116828801
C          -7.18099135412873   -4.89174581657335   -4.00909565164278
S          -8.85591555814788   -5.22906028299682   -4.06716816133207
C          -5.97323942382937   -5.37928894103149   -4.55862791235834
C          -4.89543547272878   -4.65815710016027   -4.00795335157429
C          -5.42523527834009   -3.65739951616646   -3.09362101457624
C          -4.71676067912001   -2.74165685908424   -2.37291021187186
C          -3.30969358822366   -2.66421819495218   -2.44387634204153
N          -2.16619500184659   -2.60526530622526   -2.50391941473087
C          -5.34090693977439   -1.81219973990271   -1.51367064294469
N          -5.83810985997798   -1.05398164615860   -0.81215745200978
C          -3.65621364003712   -5.10952504260992   -4.45146486155291
C          -3.77928458803610   -6.16331486711596   -5.34286988617867
S          -5.45674068675566   -6.59279509724998   -5.64487117010061
C          -2.73451635482388   -6.91446951108746   -5.93410522817830
C          -2.84424754563940   -7.91250258998768   -6.88724073955099
C          -1.61281697816844   -8.49929376018085   -7.17023374326341
C          -0.55748244110448   -7.94688624928400   -6.42091946370807
S          -1.07599674206182   -6.68556100854727   -5.39398420932123
C           0.62812596818603   -8.66350675103180   -6.71283075884005
C           0.32698283100269   -9.66519426593814   -7.65388537776720
C          -1.08542077687775   -9.57796398027167   -7.99163466873646
C          -1.76898889958106  -10.34658944450487   -8.88632643441957
C          -1.13909722316651  -11.36784494947078   -9.62905455481148
N          -0.62628175873564  -12.19875069884878  -10.22956114546889
C          -3.14698561181434  -10.16429949230897   -9.13088044360166
N          -4.26584419291614  -10.01344973356348   -9.32860317443910
C           1.41832533799839  -10.47927160214353   -7.94772546944645
C           2.54494190645676  -10.11256806855775   -7.23116953253891
S           2.25624884548916   -8.71686215321225   -6.20066140687807
C           3.79773003789759  -10.77132382326124   -7.19903489379529
C           4.89867545552313  -10.44874955498423   -6.42242704281488
C           5.92699547226705  -11.37533523426388   -6.56850822224630
C           5.61135544924333  -12.40963733660473   -7.47028035524581
S           4.05132368617626  -12.23111193705858   -8.14481293421765
C           6.68507361921514  -13.32878080286231   -7.50680475389140
C           7.68646160578222  -12.87457847416873   -6.62074114334158
C           7.25521076836776  -11.62115168557106   -6.02561928794250
C           7.95052975715457  -10.83268807985608   -5.15763633892138
C           9.26050761664045  -11.15236332277355   -4.73805259744851
N          10.33158167114594  -11.39662734121878   -4.41195811127756
C           7.41117078313406   -9.63331431681069   -4.64619801081673
N           6.96403119301908   -8.66116567946650   -4.23445381880743
C           8.76401846787226  -13.74538666381082   -6.53403436444770
C           8.60363946988110  -14.85735238228933   -7.35021652039276
S           7.09748584687341  -14.80166019299715   -8.26112828011858
C           9.46903075661686  -15.97517173699037   -7.50738413859740
C          10.59095104618768  -16.23479634408481   -6.67812836578551
C          11.44323187666964  -17.37965133492637   -6.91528729800078
N          12.52071136865573  -17.59150766021803   -6.12659263785288
C          12.75079711199019  -16.77717120327692   -5.13525834868694
C          11.86793590861840  -15.67475787082255   -4.86086128210529
N          10.83918448301578  -15.43126771423522   -5.63341857319729
C          12.09660986302530  -14.85623835264278   -3.72676983657490
N          12.30936604843938  -14.23352811161796   -2.78941504240951
C          13.88235594809114  -16.99151962447374   -4.30492437667517
N          14.78304343792599  -17.13533677418245   -3.61301805919941
C          11.19664266723386  -18.29031103079944   -7.93641173564879
C          10.08142829755181  -18.07108636786145   -8.73349602016300
C           9.22472205990076  -16.92709360687683   -8.51858090347724
N           8.21071775683227  -16.89897309624089   -9.38583241583715
S           8.32264360178812  -18.16996047780589  -10.36149529324147
N           9.64603040106975  -18.82373496169518   -9.75368537277213
H         -14.20236561492789   -3.10028542385317   -1.13422676100494
H          -7.99336372213009   -2.52352835292676   -1.76559724438691
H          -2.70429565016813   -4.71034203646607   -4.14990582943144
H          -3.78251816245564   -8.19036135669867   -7.33297286469581
H           1.40772833168835  -11.31109001748018   -8.62900853236724
H           4.92441155984260   -9.58824737403702   -5.77806411880683
H           9.62809630946340  -13.61052261386877   -5.91061581660822
H          11.85115382428727  -19.13115955126262   -8.08683133033987
