# ORCA input file
# SCF done       -202.154866932317          0.000817377466
! CAM-B3LYP def2-SVP def2/J RIJCOSX Grid4 TightSCF
%maxcore 5000
%tddft
    Mode sTDDFT
    Ethresh 5.0
    maxcore 5000
end

%pal
  nprocs 6
  end
* xyz 0 1
   C      -13.19522        -3.25889        -1.47840
   C      -12.90964        -4.25540        -2.40195
   C      -11.56242        -4.47754        -2.87136
   N      -11.31219        -5.44605        -3.75717
   C      -12.29542        -6.19410        -4.19739
   C      -13.63765        -5.97095        -3.73056
   N      -13.91250        -5.03298        -2.86682
   C      -14.68573        -6.79548        -4.21903
   N      -15.50306        -7.48025        -4.63518
   C      -12.02005        -7.22228        -5.12947
   N      -11.82525        -8.06259        -5.88352
   C      -10.46680        -3.70360        -2.41812
   C      -10.77507        -2.69581        -1.47880
   C      -12.13478        -2.48429        -1.02061
   N      -12.20269        -1.48253        -0.13405
   S      -10.73883        -0.88337         0.09282
   N       -9.92729        -1.84021        -0.90410
   C       -9.15227        -3.96309        -2.88414
   C       -7.98565        -3.32162        -2.48530
   C       -6.86520        -3.84640        -3.11224
   C       -7.18099        -4.89175        -4.00910
   S       -8.85592        -5.22906        -4.06717
   C       -5.97324        -5.37929        -4.55863
   C       -4.89544        -4.65816        -4.00795
   C       -5.42524        -3.65740        -3.09362
   C       -4.71676        -2.74166        -2.37291
   C       -3.30969        -2.66422        -2.44388
   N       -2.16620        -2.60527        -2.50392
   C       -5.34091        -1.81220        -1.51367
   N       -5.83811        -1.05398        -0.81216
   C       -3.65621        -5.10953        -4.45146
   C       -3.77928        -6.16331        -5.34287
   S       -5.45674        -6.59280        -5.64487
   C       -2.73452        -6.91447        -5.93411
   C       -2.84425        -7.91250        -6.88724
   C       -1.61282        -8.49929        -7.17023
   C       -0.55748        -7.94689        -6.42092
   S       -1.07600        -6.68556        -5.39398
   C        0.62813        -8.66351        -6.71283
   C        0.32698        -9.66519        -7.65389
   C       -1.08542        -9.57796        -7.99163
   C       -1.76899       -10.34659        -8.88633
   C       -1.13910       -11.36784        -9.62905
   N       -0.62628       -12.19875       -10.22956
   C       -3.14699       -10.16430        -9.13088
   N       -4.26584       -10.01345        -9.32860
   C        1.41833       -10.47927        -7.94773
   C        2.54494       -10.11257        -7.23117
   S        2.25625        -8.71686        -6.20066
   C        3.79773       -10.77132        -7.19903
   C        4.89868       -10.44875        -6.42243
   C        5.92700       -11.37534        -6.56851
   C        5.61136       -12.40964        -7.47028
   S        4.05132       -12.23111        -8.14481
   C        6.68507       -13.32878        -7.50680
   C        7.68646       -12.87458        -6.62074
   C        7.25521       -11.62115        -6.02562
   C        7.95053       -10.83269        -5.15764
   C        9.26051       -11.15236        -4.73805
   N       10.33158       -11.39663        -4.41196
   C        7.41117        -9.63331        -4.64620
   N        6.96403        -8.66117        -4.23445
   C        8.76402       -13.74539        -6.53403
   C        8.60364       -14.85735        -7.35022
   S        7.09749       -14.80166        -8.26113
   C        9.46903       -15.97517        -7.50738
   C       10.59095       -16.23480        -6.67813
   C       11.44323       -17.37965        -6.91529
   N       12.52071       -17.59151        -6.12659
   C       12.75080       -16.77717        -5.13526
   C       11.86794       -15.67476        -4.86086
   N       10.83918       -15.43127        -5.63342
   C       12.09661       -14.85624        -3.72677
   N       12.30937       -14.23353        -2.78942
   C       13.88236       -16.99152        -4.30492
   N       14.78304       -17.13534        -3.61302
   C       11.19664       -18.29031        -7.93641
   C       10.08143       -18.07109        -8.73350
   C        9.22472       -16.92709        -8.51858
   N        8.21072       -16.89897        -9.38583
   S        8.32264       -18.16996       -10.36150
   N        9.64603       -18.82373        -9.75369
   H      -14.20237        -3.10029        -1.13423
   H       -7.99336        -2.52353        -1.76560
   H       -2.70430        -4.71034        -4.14991
   H       -3.78252        -8.19036        -7.33297
   H        1.40773       -11.31109        -8.62901
   H        4.92441        -9.58825        -5.77806
   H        9.62810       -13.61052        -5.91062
   H       11.85115       -19.13116        -8.08683
*
