# ORCA input file
# SCF done       -222.592663451936          0.000835884327
! CAM-B3LYP def2-SVP def2/J RIJCOSX Grid4 TightSCF
%maxcore 5000
%tddft
    Mode sTDDFT
    Ethresh 5.0
    maxcore 5000
end

%pal
  nprocs 6
  end
* xyz 0 1
   C       -6.61187        -0.69612         1.93722
   O       -7.33012         0.28322         1.88189
   C       -6.75175        -1.84311         2.86022
   C       -5.71371        -2.76281         2.62514
   C       -5.63156        -3.93052         3.36418
   C       -6.59754        -4.15966         4.33441
   C       -7.63067        -3.25708         4.58010
   C       -7.70859        -2.08072         3.83133
   F       -8.69392        -1.22034         4.06363
   F       -8.53959        -3.51494         5.52223
   F       -6.53814        -5.28003         5.05525
   C       -4.86370        -2.24420         1.55009
   C       -3.72006        -2.84492         1.09474
   C       -3.21564        -4.06842         1.58748
   N       -2.75220        -5.05564         1.94381
   C       -2.86632        -2.33499         0.09202
   N       -2.11816        -1.98845        -0.70670
   C       -5.44217        -0.99201         1.10700
   C       -5.00527        -0.22684         0.05159
   C       -5.48815         0.98606        -0.45405
   C       -4.92087         1.58818        -1.58770
   C       -5.53544         2.77729        -1.91911
   C       -6.58322         3.10702        -1.02149
   S       -6.81653         1.94766         0.20144
   C       -7.14344         4.33471        -1.44199
   C       -6.46897         4.78206        -2.59430
   C       -5.43211         3.81855        -2.93024
   C       -4.55226         3.88178        -3.96918
   C       -4.54742         4.95863        -4.88190
   N       -4.54768         5.83524        -5.62036
   C       -3.58712         2.87757        -4.19971
   N       -2.80423         2.06311        -4.39262
   C       -6.96303         5.98927        -3.08240
   C       -8.00592         6.47043        -2.30531
   S       -8.37854         5.41044        -0.95720
   C       -8.73918         7.66930        -2.50242
   C       -8.65023         8.54287        -3.57424
   C       -9.51617         9.62557        -3.43485
   C      -10.26603         9.58071        -2.24523
   S       -9.91311         8.20007        -1.30747
   C      -11.09678        10.72692        -2.18934
   C      -10.87749        11.49555        -3.34680
   C       -9.88304        10.82592        -4.17114
   C       -9.40497        11.23593        -5.37979
   C       -9.84860        12.42810        -5.99160
   N      -10.21250        13.39708        -6.48399
   C       -8.44181        10.49441        -6.09772
   N       -7.66223         9.89070        -6.68177
   C      -11.64444        12.65802        -3.37905
   C      -12.44182        12.78280        -2.25468
   S      -12.24488        11.43520        -1.14284
   C      -13.32941        13.84238        -1.94263
   C      -14.10279        13.98665        -0.80244
   C      -14.84094        15.16729        -0.82250
   C      -14.63147        15.92606        -1.98939
   S      -13.52522        15.18325        -3.05903
   C      -15.41519        17.10178        -1.91489
   C      -16.11968        17.08817        -0.69041
   C      -15.79116        15.86901         0.02694
   C      -16.29673        15.46409         1.22692
   C      -17.23912        16.24906         1.92521
   N      -18.00074        16.90507         2.47655
   C      -15.91027        14.24937         1.83150
   N      -15.58346        13.26461         2.31871
   C      -16.93536        18.19614        -0.52350
   C      -16.87397        19.06391        -1.60823
   S      -15.74981        18.48829        -2.83854
   C      -17.51638        20.30139        -1.79753
   C      -18.58214        20.83777        -1.13257
   C      -18.78366        22.31160        -1.21231
   O      -18.23660        23.07225        -1.96974
   C      -19.75332        22.61990        -0.13300
   C      -20.20157        21.42220         0.45403
   C      -19.59298        20.29394        -0.25644
   C      -20.09418        19.01828        -0.25980
   C      -21.18091        18.59222         0.53429
   N      -22.05998        18.19400         1.15388
   C      -19.64795        18.00316        -1.12894
   N      -19.32917        17.15529        -1.83412
   C      -21.08458        21.44127         1.51903
   C      -21.51824        22.67580         1.98205
   C      -21.09701        23.87225         1.40380
   C      -20.20100        23.84426         0.33224
   F      -19.79609        24.98640        -0.21068
   F      -21.54249        25.03842         1.87489
   F      -22.36111        22.72290         3.01400
   H       -4.85862        -4.66696         3.22014
   H       -4.15693        -0.60638        -0.50503
   H       -4.09780         1.14366        -2.11903
   H       -6.58779         6.50210        -3.94833
   H       -7.99175         8.38702        -4.40843
   H      -11.63284        13.38813        -4.16836
   H      -14.11226        13.26187        -0.00808
   H      -17.51126        18.40319         0.35970
   H      -17.06314        20.96751        -2.52607
   H      -21.43619        20.54712         2.00703
*
