# ORCA input file
# SCF done       -216.465402851647          0.000359090231
! CAM-B3LYP def2-SVP def2/J RIJCOSX Grid4 TightSCF
%maxcore 5000
%tddft
    Mode sTDDFT
    Ethresh 5.0
    maxcore 5000
end

%pal
  nprocs 6
  end
* xyz 0 1
   C        2.57753         1.13154         1.70265
   C        1.51181         1.47392         2.69184
   O        1.22758         2.59045         3.06515
   C        0.88543         0.18942         3.04373
   C        1.59324        -0.85248         2.44225
   C        2.74703        -0.30655         1.73321
   C        3.87939        -1.00902         1.41627
   C        5.07096        -0.41851         0.95059
   N        6.07480         0.01435         0.59929
   C        4.03308        -2.39825         1.61338
   N        4.22311        -3.52095         1.75382
   C        1.17237        -2.18022         2.58793
   C        0.06000        -2.43712         3.34650
   C       -0.66551        -1.40909         3.98786
   C       -0.25368        -0.05271         3.83608
   C       -0.98512         0.97063         4.47230
   C       -2.07902         0.66177         5.23303
   C       -2.48787        -0.67256         5.38817
   C       -1.79869        -1.68542         4.77948
   C        3.11331         2.12248         0.94312
   C        3.84540         2.00726        -0.26189
   C        3.87054         0.95589        -1.16459
   C        4.70598         1.21124        -2.24531
   C        5.32519         2.47460        -2.17298
   S        4.85301         3.34868        -0.79220
   C        6.18027         2.61651        -3.29447
   C        6.10095         1.44880        -4.07333
   C        5.17947         0.52264        -3.43264
   C        4.85720        -0.74180        -3.82918
   C        5.39141        -1.32088        -4.99921
   N        5.82493        -1.78333        -5.95439
   C        3.96870        -1.54253        -3.08055
   N        3.24295        -2.18000        -2.46274
   C        6.92161         1.48918        -5.19912
   C        7.62895         2.67584        -5.27938
   S        7.26897         3.76028        -3.94477
   C        8.56606         3.05901        -6.27170
   C        9.33399         4.20900        -6.30383
   C       10.16601         4.24836        -7.42161
   C       10.02368         3.12191        -8.25044
   S        8.87197         2.01272        -7.65123
   C       10.91253         3.25276        -9.34733
   C       11.62280         4.45776        -9.20723
   C       11.17505         5.12519        -7.99492
   C       11.61062         6.31843        -7.49955
   C       12.60807         7.07855        -8.14652
   N       13.41976         7.69456        -8.67189
   C       11.09181         6.86882        -6.30828
   N       10.66914         7.31601        -5.34097
   C       12.53448         4.67417       -10.23938
   C       12.51885         3.64748       -11.16610
   S       11.35908         2.39219       -10.75291
   C       13.30868         3.53100       -12.33757
   C       13.24441         2.54320       -13.30451
   C       14.17812         2.74770       -14.31881
   C       14.96218         3.89748       -14.11921
   S       14.54350         4.73059       -12.68839
   C       15.87591         4.01794       -15.19610
   C       15.66515         2.93979       -16.07818
   C       14.58570         2.11577       -15.56452
   C       14.04796         1.00987       -16.15418
   C       14.53020         0.52842       -17.38980
   N       14.93566         0.14741       -18.39241
   C       12.98460         0.28989       -15.57058
   N       12.12447        -0.29472       -15.08816
   C       16.49826         2.97938       -17.18953
   C       17.34306         4.07812       -17.17236
   S       17.11395         5.05630       -15.72788
   C       18.33551         4.44595       -18.11084
   C       18.45409         4.05990       -19.40817
   C       19.77286         4.21673       -20.09211
   O       20.70397         4.87710       -19.68752
   C       19.68768         3.36869       -21.29206
   C       18.39294         2.86085       -21.41072
   C       17.56105         3.40395       -20.34071
   C       16.19511         3.49900       -20.37716
   C       15.43064         4.23357       -19.44903
   N       14.76434         4.84042       -18.73755
   C       15.38897         2.96158       -21.40363
   N       14.68049         2.55572       -22.20963
   C       18.06063         1.98627       -22.45277
   C       19.02936         1.65073       -23.36261
   C       20.34285         2.16378       -23.28478
   C       20.69556         3.04544       -22.22142
   C       22.00983         3.54910       -22.14373
   C       22.93717         3.19660       -23.08526
   C       22.59489         2.33057       -24.13622
   C       21.32779         1.82444       -24.23445
   H        1.70122        -2.98363         2.10166
   H       -0.28236        -3.45488         3.46540
   H       -0.66198         1.99185         4.34589
   H       -2.63796         1.44570         5.72173
   H       -3.35441        -0.89334         5.99366
   H       -2.11130        -2.71283         4.89744
   H        2.89584         3.13078         1.28209
   H        3.27381         0.06959        -1.04809
   H        7.01565         0.70337        -5.92718
   H        9.28216         4.96526        -5.54123
   H       13.18059         5.52904       -10.32830
   H       12.54620         1.72659       -13.25904
   H       16.52795         2.22967       -17.95905
   H       19.14539         5.06644       -17.73947
   H       17.06883         1.57168       -22.53056
   H       18.79256         0.97289       -24.16986
   H       22.26144         4.21327       -21.33202
   H       23.94333         3.58384       -23.02635
   H       23.34310         2.06586       -24.86858
   H       21.06205         1.15800       -25.04220
*
