108
 SCF done       -216.465402851647          0.000359090231
C           2.57752729779475    1.13153667581495    1.70265052600605
C           1.51181478895294    1.47391765381724    2.69184335911715
O           1.22758472527549    2.59045192083249    3.06515497125705
C           0.88542617500410    0.18941863864569    3.04373284829698
C           1.59323938757522   -0.85248149246518    2.44224715996931
C           2.74702766697140   -0.30654721874618    1.73320868445798
C           3.87939147722498   -1.00901775284480    1.41627425565122
C           5.07096231354409   -0.41851277922611    0.95059119388413
N           6.07480374253776    0.01435252854245    0.59929219392240
C           4.03308194447094   -2.39824869686119    1.61338072752313
N           4.22310604168479   -3.52094964373726    1.75382470712398
C           1.17237376707995   -2.18021978115252    2.58792731366181
C           0.05999652363317   -2.43711952708318    3.34649720415655
C          -0.66550758366438   -1.40909361217889    3.98786351271532
C          -0.25368190232824   -0.05270565601808    3.83607948626565
C          -0.98512458593625    0.97062932267557    4.47230361791060
C          -2.07901656159346    0.66177477773616    5.23302846478371
C          -2.48787031845867   -0.67255849689106    5.38817109104485
C          -1.79869061103965   -1.68542228304480    4.77948322320404
C           3.11330616083064    2.12248367763571    0.94312111791008
C           3.84540303974836    2.00726117074080   -0.26189046242749
C           3.87053791059208    0.95588565156489   -1.16459226432247
C           4.70597708717444    1.21124154794100   -2.24530632543998
C           5.32519244694724    2.47460492424160   -2.17298177772296
S           4.85301029416760    3.34868489054496   -0.79219637369185
C           6.18026634268728    2.61650543361350   -3.29446777623653
C           6.10094969533046    1.44879540299768   -4.07333194543355
C           5.17947241613900    0.52263984262722   -3.43263545546366
C           4.85719686685706   -0.74179755180720   -3.82918477720251
C           5.39140862417545   -1.32087928304407   -4.99921018835170
N           5.82492570318998   -1.78332751540385   -5.95438837159281
C           3.96869668163079   -1.54252524232350   -3.08055022495522
N           3.24294581726566   -2.18000014879515   -2.46273905995271
C           6.92160825506740    1.48917682003809   -5.19912345904346
C           7.62894747320675    2.67583505539629   -5.27938442937665
S           7.26896901741086    3.76028203802378   -3.94477448695046
C           8.56606091513476    3.05901369202108   -6.27169664679362
C           9.33399271057766    4.20900034833630   -6.30383092173720
C          10.16600979002300    4.24835657565227   -7.42161284514561
C          10.02367904435278    3.12190803154084   -8.25043764191480
S           8.87197210709405    2.01272361439609   -7.65122750113944
C          10.91253301711057    3.25275876843790   -9.34733131537478
C          11.62279660246242    4.45775714846765   -9.20723161882985
C          11.17504853932602    5.12518733410376   -7.99491786972702
C          11.61061858883785    6.31842663732315   -7.49955455623162
C          12.60806583010447    7.07854581702749   -8.14652164923767
N          13.41975514255562    7.69455703534691   -8.67188654800557
C          11.09180907592952    6.86882208491039   -6.30827729069535
N          10.66914473938746    7.31600579834468   -5.34097083745467
C          12.53447535686818    4.67416662659238  -10.23937852021009
C          12.51885469739467    3.64748492507243  -11.16609911886320
S          11.35908031453541    2.39218795269011  -10.75291367768972
C          13.30868340303958    3.53099605159455  -12.33756618528713
C          13.24440624832023    2.54319641810165  -13.30450926835335
C          14.17812046804503    2.74770430819036  -14.31881181060435
C          14.96218014124771    3.89747606376638  -14.11920729128343
S          14.54350021512281    4.73059246555609  -12.68839127842713
C          15.87591025908070    4.01793559175143  -15.19609679047484
C          15.66515275855065    2.93978849555487  -16.07818175691761
C          14.58569506545462    2.11576945617177  -15.56451540101063
C          14.04795906932611    1.00986756387326  -16.15417979055974
C          14.53020099062141    0.52841814924285  -17.38980188860694
N          14.93566230084457    0.14740666619309  -18.39241226499808
C          12.98459833404353    0.28989057710897  -15.57057634426665
N          12.12447277136448   -0.29471811678504  -15.08815753662496
C          16.49825734020823    2.97938498440826  -17.18952841270236
C          17.34305651989256    4.07812302402921  -17.17236058693720
S          17.11395416723638    5.05629651559265  -15.72788323307954
C          18.33550716956191    4.44594596793624  -18.11084105553902
C          18.45409347960218    4.05990191070635  -19.40817215116522
C          19.77285802123341    4.21673047922715  -20.09211095428608
O          20.70397355869367    4.87710146841778  -19.68752237683290
C          19.68767689695965    3.36868722056970  -21.29206044236950
C          18.39293949819038    2.86085175168715  -21.41071756763476
C          17.56105166509678    3.40394835915060  -20.34071086747949
C          16.19510919717959    3.49899964107928  -20.37716060861103
C          15.43064477213209    4.23357091901139  -19.44902830641158
N          14.76433845103402    4.84042165129678  -18.73754946616151
C          15.38896908779073    2.96157621405792  -21.40362846545639
N          14.68048920962194    2.55571566341856  -22.20962848679239
C          18.06063468859440    1.98627260260824  -22.45276649399987
C          19.02935502476392    1.65073332011090  -23.36261305334003
C          20.34285233593747    2.16377832909464  -23.28477595529999
C          20.69555837716996    3.04543830936120  -22.22141784114981
C          22.00982846938668    3.54909685278141  -22.14372597457843
C          22.93716735141975    3.19659611059747  -23.08525824873057
C          22.59488720515604    2.33056737186720  -24.13621751912206
C          21.32779021915485    1.82443502437595  -24.23445307753481
H           1.70121593103830   -2.98363015690073    2.10165575373893
H          -0.28236313188929   -3.45488143294902    3.46540306585516
H          -0.66198274274579    1.99184826270919    4.34589474095972
H          -2.63796284167097    1.44569824335763    5.72172941785238
H          -3.35440951060528   -0.89333642369669    5.99365644713082
H          -2.11129864138080   -2.71282644685115    4.89743977789005
H           2.89583971814823    3.13078292908928    1.28208625059344
H           3.27381054920338    0.06958738699261   -1.04808611745653
H           7.01564716286630    0.70336943324239   -5.92718372112678
H           9.28216061459477    4.96526047914776   -5.54123127624492
H          13.18058543785575    5.52904234234455  -10.32830159564951
H          12.54620072177564    1.72658809039709  -13.25904423210134
H          16.52794576472252    2.22967353554246  -17.95904500696879
H          19.14538757217062    5.06643511163998  -17.73947095734427
H          17.06882582160705    1.57168419878506  -22.53056457045613
H          18.79255955034737    0.97289093869952  -24.16985911367045
H          22.26144303834645    4.21326577405667  -21.33202236063230
H          23.94333158101795    3.58383872287288  -23.02635392867259
H          23.34310331871124    2.06585731343809  -24.86857762945131
H          21.06205076171208    1.15800063414401  -25.04219591307206
