108
 SCF done       -209.959512715558          0.000679597632
C          -2.28646533699617   -0.84888346472749   -0.87187314631463
C          -3.05128759714718   -0.27100583177104    0.13734874377077
C          -4.00111324820198    0.83162579122825   -0.20518157390766
C          -2.93773497267762   -0.71597535144401    1.46462317568025
C          -3.76509077043944   -0.09733583436201    2.54459536980079
C          -2.04830598158301   -1.74003123292148    1.77115430778323
C          -1.29503783728467   -2.30720440340101    0.76348334161789
C          -1.40495634712658   -1.87344452430999   -0.56719377878952
C          -0.50576681915766   -2.66581338995631   -1.39708516244519
C          -0.41802465627543   -2.58141645977300   -2.76250691719391
C          -1.15966471781645   -1.67015856885567   -3.54502782741143
N          -1.72381161876836   -0.95568999892732   -4.24444886445186
C           0.38280208818705   -3.38335216568215   -3.60292254686089
N           0.98464372141949   -3.99843739804700   -4.36423016665249
C           0.21095023272508   -3.58410488294853   -0.52139320980819
C          -0.30514798551066   -3.38994431325946    0.85989340704222
O           0.02464767294225   -3.96417724363391    1.87622183701933
C           1.22616444009917   -4.39628569104051   -0.94145304309898
C           1.96755933492460   -5.38886116984898   -0.26640397063726
C           1.85396896540748   -5.95970113790175    0.99423262456844
C           2.78875096953066   -6.96533543054610    1.20078418711454
C           3.63895268818631   -7.17230275608803    0.09053938584945
S           3.27550276770297   -6.13326285955062   -1.20266034926820
C           4.54227462425784   -8.21596599218072    0.40448825566625
C           4.26546068320548   -8.67351048296634    1.70456686611829
C           3.15558255852422   -7.90312500973877    2.24826310072808
C           2.58609552692637   -8.05304236654131    3.47737464176065
C           3.05673799953439   -9.01354856534397    4.39892293990554
N           3.44019076512796   -9.79257049711982    5.14781645053478
C           1.48883317744166   -7.28644080909262    3.92829341060778
N           0.58952792038208   -6.69892594918831    4.32715707892056
C           5.09388525092522   -9.72126564511937    2.09879806267775
C           6.00104480610795  -10.06374223649898    1.11078038079996
S           5.82934952688041   -9.07229238748446   -0.32798868862626
C           6.97506200016200  -11.09181288989785    1.16976318113548
C           7.91542039591311  -11.43429113657714    0.21481139454120
C           8.70012011568516  -12.51360251095090    0.62105783223013
C           8.34789233219317  -12.99567631239553    1.89358071360229
S           7.06142853603299  -12.12114728050899    2.59339884301690
C           9.19030700159748  -14.08879222401355    2.21381821771203
C          10.08112069480509  -14.29771445146363    1.14709613188793
C           9.80131139395016  -13.31599782767934    0.10958199380290
C          10.43381616541086  -13.18069751700508   -1.09060585202165
C          11.49204651035891  -14.02976933949025   -1.47867831634763
N          12.35046587223052  -14.72176870695833   -1.79268912175290
C          10.06775259139496  -12.18520122103547   -2.02135616422571
N           9.77121249518162  -11.37696693292297   -2.77833076234796
C          10.95630245321459  -15.36018780345326    1.37283090141406
C          10.73216568126507  -15.96167575807973    2.59814241951075
S           9.42109545358076  -15.19961228740766    3.48813639597480
C          11.41664346880916  -17.06390940152127    3.16926155461138
C          11.13088129480569  -17.69130270059894    4.36920638075601
C          12.00617931802357  -18.74372627302252    4.62684410675246
C          12.97104671445953  -18.91566361134257    3.61862951694738
S          12.79267901180931  -17.78521740948041    2.34966820753918
C          13.81667354198932  -19.99530096085826    3.97937196029732
C          13.37360280314739  -20.51018503932431    5.21385238342161
C          12.23087329949939  -19.73758554071382    5.66482550772645
C          11.54303413403260  -19.89594260876819    6.83171346568911
C          11.89182026870926  -20.89869140260019    7.76118796384335
N          12.18439492774233  -21.72029749775277    8.50569327501561
C          10.44873804275475  -19.07473667069565    7.17494898886508
N           9.55361006006102  -18.41164828028414    7.44597504212189
C          14.15763806111304  -21.55914900894308    5.67686657283955
C          15.20707314481150  -21.84808755484553    4.81893012631650
S          15.18531861257710  -20.81840601939446    3.39182044934059
C          16.20083867220175  -22.84687759265890    4.94411678739645
C          16.58647055400181  -23.51687874603759    6.06189640982238
C          17.32515233288405  -24.80860622835618    5.90908407672456
O          17.84780235278163  -25.21863678300902    4.89872974153335
C          17.21399161558756  -25.46689781113318    7.22015419182570
C          16.59769785255708  -24.59397275484330    8.13519289855478
C          16.34766923627981  -25.02148707236657    9.42703287363172
C          16.72187936977816  -26.30591045176550    9.81168864995143
C          17.35656130247655  -27.16611664583235    8.90047688140596
C          17.59648636431722  -26.73823714337150    7.59867505429029
C          17.76918565887476  -28.53978477466575    9.32132833014277
C          16.44169221415680  -26.76321330581599   11.20677521530593
C          16.34757995993614  -23.31583186137702    7.47777364405036
C          16.18336488520618  -22.11981132458335    8.12553989682218
C          16.16917103606764  -20.86767500706866    7.48114265724943
N          16.17323945814926  -19.82341929346877    7.00337895620658
C          16.10266967722196  -21.99379080738958    9.52873155891678
N          16.03860365692583  -21.83315637002163   10.66297719753668
H          -2.39197678971816   -0.48513878166421   -1.88106773234744
H          -3.96721702902104    1.05453521858793   -1.26791950837609
H          -3.75322045742896    1.73622636763814    0.34908693236055
H          -5.02057210544813    0.55327574783895    0.05976813635382
H          -4.82651955380903   -0.21549418244660    2.32889036308162
H          -3.56235406751543    0.97062614974787    2.61860813772880
H          -3.55200975521057   -0.55918079614638    3.50460180174776
H          -1.94100413473724   -2.10026952454465    2.78335843162447
H           1.53150265359522   -4.27978125031524   -1.97483555609205
H           1.12049322938462   -5.63342866219643    1.70988078670737
H           5.05330930433847  -10.22142838578312    3.04967964115974
H           8.01065279879331  -10.91409074400586   -0.72148397828728
H          11.71895047204629  -15.69314022728408    0.69185094103785
H          10.32246083946819  -17.38648429745882    5.00944723910445
H          13.96066784597706  -22.12003104490152    6.57205504624043
H          16.67732308168179  -23.17254999206429    4.02456785819181
H          15.85162092984881  -24.37873822917496   10.13716164370157
H          18.07777649329388  -27.38734297807294    6.88255206816580
H          16.90443216122381  -29.11478482639970    9.65112640943788
H          18.46818956197424  -28.49099444415086   10.15556244024181
H          18.24489046723914  -29.06810131831690    8.49977063534626
H          15.95110524251299  -25.98022789558356   11.77798642419893
H          17.36731089486353  -27.03489547794958   11.71289998565499
H          15.80066748672135  -27.64423401103397   11.19915519607979
