96
 SCF done       -205.376821533811          0.000935199627
C          -2.92705717040397   -1.67356315931905    3.79088481703050
C          -3.38984459872370   -2.55377858097338    4.86858653725196
O          -3.86305982883047   -3.67136880373153    4.76118193352868
C          -3.15660917998821   -1.81892386797604    6.12562475656414
C          -2.62314800013304   -0.55144582981384    5.83057407804006
C          -2.50294828479862   -0.41492503003342    4.38076226606352
C          -2.10070061900728    0.71674239106228    3.72288015384188
C          -1.71401109133723    1.91062834017179    4.36972933404016
N          -1.38700471365922    2.90868737171177    4.83224167819737
C          -2.03556030524458    0.87424159458976    2.32165117705141
N          -1.96655949934082    1.08395978333808    1.19483828447611
C          -2.31169346389181    0.31255085938149    6.87070471505114
C          -2.53800636810648   -0.10061163023237    8.17480216353826
C          -3.07028024055761   -1.35681900288662    8.44604981135020
C          -3.38886277180915   -2.23840989673679    7.41896551646290
Cl         -3.33551756616619   -1.82756960723684   10.08049959010190
C          -2.83901893701989   -2.01531377559264    2.46600078393029
C          -3.20308302613863   -3.20069526530077    1.80841275228208
C          -2.95235229598289   -3.39264414924618    0.44377409643023
C          -3.38286187293149   -4.62563578681063   -0.00558539897430
C          -3.99281023842094   -5.38594946940942    1.02188090043624
S          -4.00480570441006   -4.59689318389045    2.52986340555361
C          -4.39003678195713   -6.62629929483562    0.46721997579736
C          -4.03234404274986   -6.65894100772166   -0.89297455814907
C          -3.39048511962928   -5.40004464246506   -1.23693870520978
C          -2.89479521813655   -5.03548797979769   -2.45355386272314
C          -2.96370965724164   -5.89144233006915   -3.57330927615051
N          -3.02194531444323   -6.59053271858010   -4.48016878505312
C          -2.27663643366400   -3.78566295852271   -2.67248868220979
N          -1.76760921041071   -2.77495194236846   -2.85462488046454
C          -4.37115628994482   -7.85837116537483   -1.51616917522627
C          -4.99028318442654   -8.73561600967046   -0.64273857302068
S          -5.15704267389429   -8.06704173537761    0.97312897476316
C          -5.44950422026353  -10.04765906165364   -0.92127620339910
C          -6.13923952935400  -10.89729132409164   -0.07497024271747
C          -6.40783911138768  -12.12570819685728   -0.67660792438626
C          -5.91158522307911  -12.21218625758828   -1.98932685906456
S          -5.13008163997476  -10.77899670847440   -2.48800010340178
C          -6.20906899130096  -13.50021088896259   -2.50119594719909
C          -6.90135602717533  -14.22558441073297   -1.51559651250952
C          -7.05317663951813  -13.38476931840451   -0.33815813432692
C          -7.66538965588564  -13.71040299482206    0.83559970583044
C          -8.25828459345339  -14.97399564532510    1.04381648147841
N          -8.73372348470083  -16.00237984624294    1.21884974454955
C          -7.74491221953536  -12.80481336735435    1.91506028006060
N          -7.80820792893071  -12.06755396373131    2.79070393125459
C          -7.22174413225192  -15.52058949578148   -1.91963854245280
C          -6.77079017054188  -15.78846745406372   -3.19984165142995
S          -5.94865194819967  -14.41160892393828   -3.92077830438235
C          -6.88645399898428  -17.00376225548911   -3.92021880065489
C          -6.35580735847783  -17.29726333610422   -5.16472142173106
C          -6.63906557485621  -18.60426155840582   -5.55479139999708
C          -7.39919546649273  -19.30861957077285   -4.60370300946555
S          -7.75923219235857  -18.36150985448782   -3.22797453471203
C          -7.63051729145419  -20.61990819443635   -5.08693728777641
C          -7.00253840721896  -20.74582691381547   -6.34379543938402
C          -6.37196113020858  -19.48288597941238   -6.68328874981330
C          -5.70018183789473  -19.18594447089415   -7.83222913918433
C          -5.53627824730584  -20.14497517950124   -8.85445976171096
N          -5.40767852614347  -20.93851929720724   -9.67195291297791
C          -5.13159971716592  -17.91543516230846   -8.06157667379977
N          -4.66737030214783  -16.88178870395294   -8.23593505142119
C          -7.18368484913351  -21.99664854071566   -6.91690756518743
C          -7.95496697640836  -22.83272880685003   -6.12141381199175
S          -8.42572605342002  -22.04722558424880   -4.61628984626139
C          -8.33560353975049  -24.17285082093410   -6.34382441014621
C          -8.32669264342891  -24.88921149404093   -7.50266081843462
C          -8.35424840404623  -26.37744478894142   -7.41527525877083
O          -8.61292514321481  -27.03776556002827   -6.43755057833249
C          -7.94448853272337  -26.84833168245329   -8.75552635309510
C          -7.81582297119675  -25.74525531146940   -9.61975075429984
C          -8.20055931541469  -24.53242037875491   -8.90108690822034
C          -8.61360545841951  -23.36963024569703   -9.49699813697439
C          -8.58332383270189  -23.14622660931773  -10.89042428375912
N          -8.58446871813372  -22.91293942952385  -12.01351454954976
C          -9.20696644496491  -22.29676322046369   -8.80370368064810
N          -9.71720930495728  -21.41073170765389   -8.28125699578139
C          -7.39577004885977  -25.94200621545544  -10.92666357281912
C          -7.12493421562334  -27.23327612598637  -11.35205638459292
C          -7.27645651671062  -28.31572500839194  -10.49105768420663
C          -7.68657160221503  -28.13737546333769   -9.17419363512022
Cl         -6.94330832968295  -29.90386066760634  -11.06614542329011
H          -1.89607882982827    1.29002112151822    6.68969736271458
H          -2.29802218170144    0.55936050940439    8.99354389651127
H          -3.80071661889807   -3.21529194361318    7.61686669697569
H          -2.40284709451583   -1.28170021956185    1.79856594610187
H          -2.47054508587931   -2.64419327194299   -0.16034086748791
H          -4.18590911998554   -8.09688930053169   -2.54818033010617
H          -6.42286708800890  -10.61957126588381    0.92432927452088
H          -7.74691871931438  -16.24530086702463   -1.32364704117512
H          -5.78970020341883  -16.58680331274336   -5.74015423251326
H          -6.74200709061411  -22.31315682162957   -7.84391344525859
H          -8.61251974901338  -24.74323571814381   -5.46204631072728
H          -7.26309630242982  -25.11601255943468  -11.60647701566080
H          -6.79231903075643  -27.40531605033459  -12.36360826887713
H          -7.80123471480112  -28.97032582033793   -8.49885635269368
