# ORCA input file
# SCF done       -205.376821533811          0.000935199627
! CAM-B3LYP def2-SVP def2/J RIJCOSX Grid4 TightSCF
%maxcore 5000
%tddft
    Mode sTDDFT
    Ethresh 5.0
    maxcore 5000
end

%pal
  nprocs 6
  end
* xyz 0 1
   C       -2.92706        -1.67356         3.79088
   C       -3.38984        -2.55378         4.86859
   O       -3.86306        -3.67137         4.76118
   C       -3.15661        -1.81892         6.12562
   C       -2.62315        -0.55145         5.83057
   C       -2.50295        -0.41493         4.38076
   C       -2.10070         0.71674         3.72288
   C       -1.71401         1.91063         4.36973
   N       -1.38700         2.90869         4.83224
   C       -2.03556         0.87424         2.32165
   N       -1.96656         1.08396         1.19484
   C       -2.31169         0.31255         6.87070
   C       -2.53801        -0.10061         8.17480
   C       -3.07028        -1.35682         8.44605
   C       -3.38886        -2.23841         7.41897
  Cl       -3.33552        -1.82757        10.08050
   C       -2.83902        -2.01531         2.46600
   C       -3.20308        -3.20070         1.80841
   C       -2.95235        -3.39264         0.44377
   C       -3.38286        -4.62564        -0.00559
   C       -3.99281        -5.38595         1.02188
   S       -4.00481        -4.59689         2.52986
   C       -4.39004        -6.62630         0.46722
   C       -4.03234        -6.65894        -0.89297
   C       -3.39049        -5.40004        -1.23694
   C       -2.89480        -5.03549        -2.45355
   C       -2.96371        -5.89144        -3.57331
   N       -3.02195        -6.59053        -4.48017
   C       -2.27664        -3.78566        -2.67249
   N       -1.76761        -2.77495        -2.85462
   C       -4.37116        -7.85837        -1.51617
   C       -4.99028        -8.73562        -0.64274
   S       -5.15704        -8.06704         0.97313
   C       -5.44950       -10.04766        -0.92128
   C       -6.13924       -10.89729        -0.07497
   C       -6.40784       -12.12571        -0.67661
   C       -5.91159       -12.21219        -1.98933
   S       -5.13008       -10.77900        -2.48800
   C       -6.20907       -13.50021        -2.50120
   C       -6.90136       -14.22558        -1.51560
   C       -7.05318       -13.38477        -0.33816
   C       -7.66539       -13.71040         0.83560
   C       -8.25828       -14.97400         1.04382
   N       -8.73372       -16.00238         1.21885
   C       -7.74491       -12.80481         1.91506
   N       -7.80821       -12.06755         2.79070
   C       -7.22174       -15.52059        -1.91964
   C       -6.77079       -15.78847        -3.19984
   S       -5.94865       -14.41161        -3.92078
   C       -6.88645       -17.00376        -3.92022
   C       -6.35581       -17.29726        -5.16472
   C       -6.63907       -18.60426        -5.55479
   C       -7.39920       -19.30862        -4.60370
   S       -7.75923       -18.36151        -3.22797
   C       -7.63052       -20.61991        -5.08694
   C       -7.00254       -20.74583        -6.34380
   C       -6.37196       -19.48289        -6.68329
   C       -5.70018       -19.18594        -7.83223
   C       -5.53628       -20.14498        -8.85446
   N       -5.40768       -20.93852        -9.67195
   C       -5.13160       -17.91544        -8.06158
   N       -4.66737       -16.88179        -8.23594
   C       -7.18368       -21.99665        -6.91691
   C       -7.95497       -22.83273        -6.12141
   S       -8.42573       -22.04723        -4.61629
   C       -8.33560       -24.17285        -6.34382
   C       -8.32669       -24.88921        -7.50266
   C       -8.35425       -26.37744        -7.41528
   O       -8.61293       -27.03777        -6.43755
   C       -7.94449       -26.84833        -8.75553
   C       -7.81582       -25.74526        -9.61975
   C       -8.20056       -24.53242        -8.90109
   C       -8.61361       -23.36963        -9.49700
   C       -8.58332       -23.14623       -10.89042
   N       -8.58447       -22.91294       -12.01351
   C       -9.20697       -22.29676        -8.80370
   N       -9.71721       -21.41073        -8.28126
   C       -7.39577       -25.94201       -10.92666
   C       -7.12493       -27.23328       -11.35206
   C       -7.27646       -28.31573       -10.49106
   C       -7.68657       -28.13738        -9.17419
  Cl       -6.94331       -29.90386       -11.06615
   H       -1.89608         1.29002         6.68970
   H       -2.29802         0.55936         8.99354
   H       -3.80072        -3.21529         7.61687
   H       -2.40285        -1.28170         1.79857
   H       -2.47055        -2.64419        -0.16034
   H       -4.18591        -8.09689        -2.54818
   H       -6.42287       -10.61957         0.92433
   H       -7.74692       -16.24530        -1.32365
   H       -5.78970       -16.58680        -5.74015
   H       -6.74201       -22.31316        -7.84391
   H       -8.61252       -24.74324        -5.46205
   H       -7.26310       -25.11601       -11.60648
   H       -6.79232       -27.40532       -12.36361
   H       -7.80123       -28.97033        -8.49886
*
