94
 SCF done       -191.384978126988          0.000934409637
C          -1.31639361108228    5.63362660485170    2.29502501623192
C          -2.15489445869316    5.86700148502217    3.35520807324411
C          -1.79647591920617    5.44601432951555    4.65308489909101
N          -1.49672820753567    5.09878083899778    5.70442948745995
C          -3.40213800317111    6.51079773619013    3.27896022029362
N          -4.42839061699676    7.02607677353202    3.27953489491922
C          -1.48740231760302    5.96773647475244    0.90469806507503
C          -0.40106916583462    5.55060159800233    0.10767180104106
C          -0.41371066305050    5.79945669036587   -1.26208810379099
C          -1.49398574907774    6.45139318505539   -1.82250873251593
C          -2.56584249407201    6.85973312271507   -1.03535713307340
C          -2.57172749663930    6.62335692162884    0.32489417903827
C           0.63487089262808    4.87654603976731    0.85027551797767
S           0.20670424445871    4.81482474982527    2.55634221990397
C           1.77126809311640    4.33221698562052    0.34009022675646
C           2.78478791046019    3.62872900590011    1.02470733560902
C           3.87888738791089    3.02003910241915    0.41879024244583
C           4.68716659449873    2.35721087711819    1.33408124298338
C           4.21756376783132    2.46933772091788    2.65767025845060
S           2.78175005097796    3.38307282306211    2.76765460004339
C           5.07821593754651    1.73118428775068    3.50485921145742
C           6.08771495830272    1.14435463118080    2.72092491116150
C           5.88228785616708    1.52690154064297    1.33336688092856
C           6.63733391783415    1.16599897302225    0.25645445533971
C           7.77373569961235    0.33926756496252    0.38120345701633
N           8.69557053905080   -0.33488028966485    0.48182743684595
C           6.32600091091832    1.59096886512478   -1.05218442321507
N           6.07006333077110    1.93452232018751   -2.11582547203719
C           6.95481298124601    0.34372312471640    3.46328368000901
C           6.61431262437728    0.31869840114817    4.80386382294418
S           5.20986547068917    1.31669809844008    5.15655426201383
C           7.20356588306939   -0.46040325669264    5.83082799505114
C           6.85841553033711   -0.49043067482569    7.16999373387599
C           7.56132701109384   -1.47208424930889    7.86705344043952
C           8.45203563620637   -2.19098164545790    7.05132643438462
S           8.44410165610672   -1.64251465502833    5.43395531412538
C           9.02836027546303   -3.23276908667968    7.81968952102599
C           8.49972079339842   -3.17600941927498    9.12081890880266
C           7.59247928221667   -2.04191233181095    9.20550049568225
C           6.91699696064096   -1.60424359333239   10.30577682041126
C           7.03798507771679   -2.24054733313729   11.55956515219846
N           7.14052244783602   -2.75769585527184   12.57748103237974
C           6.06510705205423   -0.48002378807326   10.26191806841409
N           5.37424041781321    0.43393508730527   10.22292656001808
C           8.91893237837235   -4.23611001621655    9.92394433488461
C           9.76336046274701   -5.09555589936386    9.24537107202038
S          10.07049130666942   -4.56690882159199    7.59574104192144
C          10.27813398776513   -6.33860897973453    9.69296108471678
C          11.17559719656177   -7.16335249144439    9.03957621581486
C          11.35741883029046   -8.37113590874735    9.71218564303800
C          10.58568170361602   -8.46721866433879   10.88399295955852
S           9.66490161261555   -7.05830928500871   11.17604792929582
C          10.77240831522153   -9.75339270910306   11.44565372696651
C          11.67362149054674  -10.46973810505378   10.63350669821137
C          12.08357374063499   -9.61684519377654    9.52807245535028
C          12.95477588548465   -9.92540350584619    8.52521656231324
C          13.59555855743462  -11.18002000211265    8.45046056520039
N          14.11310163887058  -12.20130848573030    8.38830843762336
C          13.27102993243129   -9.01007528271054    7.49907780808941
N          13.52781492950197   -8.26669757248694    6.66472175811870
C          11.87645161312903  -11.77180217896504   11.07325270420338
C          11.12712960580589  -12.06860426577101   12.20672664787673
S          10.17760482895536  -10.68721535565358   12.74355686645942
C          11.08545112400769  -13.33116868861231   12.83484448591582
C          10.31767149149249  -13.72471444577638   13.88521433722495
C          10.26632814162387  -15.04634662238698   14.45937827287145
C           9.34092901939979  -15.16735283929316   15.51667033212844
C           8.65398102422741  -13.93296344892732   15.79700946729064
C           7.69307665752468  -13.66780817169372   16.73919206943777
C           7.17489562397254  -14.59928564985193   17.65550231283620
N           6.71395866140690  -15.31488563590307   18.42671529338212
C           7.13665192884775  -12.37595141065836   16.84681103104380
N           6.68904830593316  -11.32270666501583   16.92658517955391
S           9.19536922537487  -12.66103219457973   14.72568754123585
C           9.16965616463012  -16.39052368973024   16.16180268963128
C           9.91681526633333  -17.47718508803071   15.75299707261935
C          10.83099241178100  -17.35912917445458   14.71125343129969
C          11.01080086140235  -16.15389693409924   14.06256979109599
H           0.41205165097660    5.48778763321551   -1.88218703398101
H          -1.50655436390118    6.64597216129891   -2.88410454325347
H          -3.40248407455132    7.36670509585403   -1.49020110938225
H          -3.40507990223500    6.94215197521736    0.92904028793935
H           1.92724417295237    4.41755617232513   -0.72723042853659
H           4.05036385793745    3.06004554732388   -0.64166501450379
H           7.78659760681160   -0.20809095011945    3.06325540712445
H           6.11663894150313    0.16178980836905    7.59502378354890
H           8.62074165345822   -4.39761580608456   10.94436715305807
H          11.65336643206784   -6.88866643429041    8.11623352227034
H          12.51862484190303  -12.49131327864321   10.59853855563060
H          11.73665155286841  -14.07286258653634   12.39131993986489
H           8.46296685906174  -16.48914350639229   16.96914628020225
H           9.78829431684402  -18.42696500056911   16.24814467920044
H          11.40605140113709  -18.21970503086767   14.40522180463919
H          11.72205863864836  -16.07419219866279   13.25559288797943
