# ORCA input file
# SCF done       -191.384978126988          0.000934409637
! CAM-B3LYP def2-SVP def2/J RIJCOSX Grid4 TightSCF
%maxcore 5000
%tddft
    Mode sTDDFT
    Ethresh 5.0
    maxcore 5000
end

%pal
  nprocs 6
  end
* xyz 0 1
   C       -1.31639         5.63363         2.29503
   C       -2.15489         5.86700         3.35521
   C       -1.79648         5.44601         4.65308
   N       -1.49673         5.09878         5.70443
   C       -3.40214         6.51080         3.27896
   N       -4.42839         7.02608         3.27953
   C       -1.48740         5.96774         0.90470
   C       -0.40107         5.55060         0.10767
   C       -0.41371         5.79946        -1.26209
   C       -1.49399         6.45139        -1.82251
   C       -2.56584         6.85973        -1.03536
   C       -2.57173         6.62336         0.32489
   C        0.63487         4.87655         0.85028
   S        0.20670         4.81482         2.55634
   C        1.77127         4.33222         0.34009
   C        2.78479         3.62873         1.02471
   C        3.87889         3.02004         0.41879
   C        4.68717         2.35721         1.33408
   C        4.21756         2.46934         2.65767
   S        2.78175         3.38307         2.76765
   C        5.07822         1.73118         3.50486
   C        6.08771         1.14435         2.72092
   C        5.88229         1.52690         1.33337
   C        6.63733         1.16600         0.25645
   C        7.77374         0.33927         0.38120
   N        8.69557        -0.33488         0.48183
   C        6.32600         1.59097        -1.05218
   N        6.07006         1.93452        -2.11583
   C        6.95481         0.34372         3.46328
   C        6.61431         0.31870         4.80386
   S        5.20987         1.31670         5.15655
   C        7.20357        -0.46040         5.83083
   C        6.85842        -0.49043         7.16999
   C        7.56133        -1.47208         7.86705
   C        8.45204        -2.19098         7.05133
   S        8.44410        -1.64251         5.43396
   C        9.02836        -3.23277         7.81969
   C        8.49972        -3.17601         9.12082
   C        7.59248        -2.04191         9.20550
   C        6.91700        -1.60424        10.30578
   C        7.03799        -2.24055        11.55957
   N        7.14052        -2.75770        12.57748
   C        6.06511        -0.48002        10.26192
   N        5.37424         0.43394        10.22293
   C        8.91893        -4.23611         9.92394
   C        9.76336        -5.09556         9.24537
   S       10.07049        -4.56691         7.59574
   C       10.27813        -6.33861         9.69296
   C       11.17560        -7.16335         9.03958
   C       11.35742        -8.37114         9.71219
   C       10.58568        -8.46722        10.88399
   S        9.66490        -7.05831        11.17605
   C       10.77241        -9.75339        11.44565
   C       11.67362       -10.46974        10.63351
   C       12.08357        -9.61685         9.52807
   C       12.95478        -9.92540         8.52522
   C       13.59556       -11.18002         8.45046
   N       14.11310       -12.20131         8.38831
   C       13.27103        -9.01008         7.49908
   N       13.52781        -8.26670         6.66472
   C       11.87645       -11.77180        11.07325
   C       11.12713       -12.06860        12.20673
   S       10.17760       -10.68722        12.74356
   C       11.08545       -13.33117        12.83484
   C       10.31767       -13.72471        13.88521
   C       10.26633       -15.04635        14.45938
   C        9.34093       -15.16735        15.51667
   C        8.65398       -13.93296        15.79701
   C        7.69308       -13.66781        16.73919
   C        7.17490       -14.59929        17.65550
   N        6.71396       -15.31489        18.42672
   C        7.13665       -12.37595        16.84681
   N        6.68905       -11.32271        16.92659
   S        9.19537       -12.66103        14.72569
   C        9.16966       -16.39052        16.16180
   C        9.91682       -17.47719        15.75300
   C       10.83099       -17.35913        14.71125
   C       11.01080       -16.15390        14.06257
   H        0.41205         5.48779        -1.88219
   H       -1.50655         6.64597        -2.88410
   H       -3.40248         7.36671        -1.49020
   H       -3.40508         6.94215         0.92904
   H        1.92724         4.41756        -0.72723
   H        4.05036         3.06005        -0.64167
   H        7.78660        -0.20809         3.06326
   H        6.11664         0.16179         7.59502
   H        8.62074        -4.39762        10.94437
   H       11.65337        -6.88867         8.11623
   H       12.51862       -12.49131        10.59854
   H       11.73665       -14.07286        12.39132
   H        8.46297       -16.48914        16.96915
   H        9.78829       -18.42697        16.24814
   H       11.40605       -18.21971        14.40522
   H       11.72206       -16.07419        13.25559
*
