91
 SCF done       -187.338673110995          0.000474244155
C          -0.36537036863003   -1.64278717354919    1.41179527915120
S          -1.48955289776796   -0.76313269406118    2.44156799663713
C          -0.42569416621787    0.67286263873310    2.49508935005868
O          -0.67256187130677    1.68069625577346    3.08760695163336
N           0.69060725400887    0.41317355808293    1.75397245948135
C           0.81063280642615   -0.81818423383393    1.13047137263927
O           1.77507558884606   -1.10821312882297    0.45913110677683
C           1.72527493146583    1.41810517996736    1.62890431986017
C          -0.68533252289372   -2.90073518146806    1.00375143421256
C           0.00253604503068   -3.82645548594829    0.18704354005417
C           1.23615051632782   -3.79174267708517   -0.44671387942766
C           1.49073841114080   -4.95600806760104   -1.16328370930255
C           0.44313812643144   -5.89818170091526   -1.08400677108610
S          -0.84562785775816   -5.34924162250325   -0.12141487146856
C           0.79318850097566   -7.03053159204495   -1.85755280479672
C           2.06072075727310   -6.81309715840904   -2.42412218146148
C           2.54174059446114   -5.50292728371007   -2.00681587243033
C           3.72608084917796   -4.92372684363458   -2.35173879679662
C           4.65073289998265   -5.57745477707994   -3.19532071648443
N           5.39818677745926   -6.10879711597829   -3.88353707123705
C           4.12829589369839   -3.64445097343777   -1.90826517385553
N           4.49377757360941   -2.61253974650373   -1.56985560484538
C           2.48836448499885   -7.87527355147229   -3.21881537240550
C           1.55362540216775   -8.89454007967524   -3.26666121421173
S           0.12675166022158   -8.53973473345104   -2.30538479717968
C           1.63669367812207  -10.10567090138605   -3.99848749126355
C           0.67033652740696  -11.08820210033134   -4.11694293823488
C           1.08251120703869  -12.12553881836317   -4.95234303171797
C           2.37659807581564  -11.93322709820114   -5.46619233030441
S           3.08455965308979  -10.47715422038767   -4.92465192708833
C           2.69097054902554  -13.02133503310380   -6.31888268330527
C           1.59270742709872  -13.89812666204658   -6.35023678496782
C           0.54902551829291  -13.36923311664485   -5.48602122646291
C          -0.67305939125752  -13.91890464114735   -5.23451270656485
C          -1.08152483880980  -15.13606597948157   -5.82010761678792
N          -1.41351720938777  -16.12493802603868   -6.29573167582811
C          -1.60734111713586  -13.30458624107447   -4.37392607986225
N          -2.36741501403118  -12.80460097029442   -3.67626128677360
C           1.79521639742604  -14.99174051947158   -7.19099292940914
C           3.03943709894575  -14.95609635635642   -7.79412750714560
S           3.97666119297786  -13.54932419994692   -7.31017613599165
C           3.57427703006249  -15.88009010266296   -8.72701628063252
C           4.84146661398489  -15.87740161848835   -9.28283259073197
C           5.01213347871330  -16.92174257311505  -10.19006575702729
C           3.86388888414937  -17.72165981847114  -10.32904010159212
S           2.57985143007979  -17.19622777850908   -9.33205833390404
C           4.11773835840733  -18.73708340205031  -11.28305282174724
C           5.44532419811066  -18.57617760090931  -11.74546637274576
C           6.04792365989838  -17.43649579580129  -11.07200389276081
C           7.30893800432879  -16.94373208538828  -11.23377320009639
C           8.23572471389394  -17.52033328603641  -12.12834346039920
N           8.99279156696596  -17.98046445412825  -12.85560713370070
C           7.76669922944931  -15.81803515899427  -10.51690634132701
N           8.13427036726958  -14.90185287759053   -9.93368035130437
C           5.78235197987920  -19.51803376883463  -12.69935727764543
C           4.72585288964674  -20.38836198572909  -12.99090102142237
S           3.29041387733409  -20.02153407640211  -12.03502780119294
C           4.85313546652701  -21.40924650046265  -13.94863194653646
C           3.92445174229763  -22.29574630252576  -14.42399240615787
C           4.14464503071294  -23.30235790375889  -15.44797825749018
C           5.33922739523789  -23.67441106231656  -16.00364800486321
C           6.60342981910029  -23.14463129163348  -15.66658687301036
N           7.66685205785138  -22.77453839737412  -15.44142588944172
C           5.47560919564112  -24.67638832336387  -16.98866072409263
N           5.65766076757393  -25.47749418127424  -17.79031759426498
C           2.84454588662321  -23.89550103884715  -15.76001165695276
C           1.87305030377129  -23.33056874000395  -14.91405162498595
C           2.50578025439821  -22.33621880165095  -14.04010302366082
O           1.95876375882334  -21.67035733892679  -13.17656522321873
C           0.54729605831555  -23.71506049635489  -14.98374451140225
C           0.19041779350679  -24.67345374755201  -15.91780001935486
C           1.13532617326010  -25.24022477389537  -16.77192596114223
C           2.47157107241120  -24.84920521325973  -16.69096332008780
C           0.71384951074204  -26.24944637853031  -17.79107896780694
H           1.31285537494756    2.32128549835448    1.17960186044364
H           2.50603731065985    1.00167451069197    0.99445078913537
H           2.12666249115225    1.66258604349198    2.61220934341841
H          -1.64358429402109   -3.26183502136393    1.36146476736796
H           1.89570930610796   -2.94615308843461   -0.37621284362897
H           3.42312262148768   -7.91884028524677   -3.74828539918056
H          -0.28207735843996  -11.03114072251457   -3.62110100507591
H           1.08518511807947  -15.77960688323516   -7.36763895772291
H           5.58732466794356  -15.14527806926065   -9.02993257716904
H           6.73839422412775  -19.59454285802013  -13.18662394696993
H           5.84705630528127  -21.46087377284413  -14.37698721578571
H          -0.18087262123757  -23.27173635966528  -14.32224233462948
H          -0.83961741462791  -24.99004082285974  -15.99174655234475
H           3.19192662962459  -25.29365184755216  -17.35838619817049
H           0.29805420083859  -25.74056569363761  -18.66135028789109
H          -0.05518257519474  -26.90662916296250  -17.39158758525838
H           1.55918830035398  -26.84707151708909  -18.12140373587259
