# ORCA input file
# SCF done       -187.338673110995          0.000474244155
! CAM-B3LYP def2-SVP def2/J RIJCOSX Grid4 TightSCF
%maxcore 5000
%tddft
    Mode sTDDFT
    Ethresh 5.0
    maxcore 5000
end

%pal
  nprocs 6
  end
* xyz 0 1
   C       -0.36537        -1.64279         1.41180
   S       -1.48955        -0.76313         2.44157
   C       -0.42569         0.67286         2.49509
   O       -0.67256         1.68070         3.08761
   N        0.69061         0.41317         1.75397
   C        0.81063        -0.81818         1.13047
   O        1.77508        -1.10821         0.45913
   C        1.72527         1.41811         1.62890
   C       -0.68533        -2.90074         1.00375
   C        0.00254        -3.82646         0.18704
   C        1.23615        -3.79174        -0.44671
   C        1.49074        -4.95601        -1.16328
   C        0.44314        -5.89818        -1.08401
   S       -0.84563        -5.34924        -0.12141
   C        0.79319        -7.03053        -1.85755
   C        2.06072        -6.81310        -2.42412
   C        2.54174        -5.50293        -2.00682
   C        3.72608        -4.92373        -2.35174
   C        4.65073        -5.57745        -3.19532
   N        5.39819        -6.10880        -3.88354
   C        4.12830        -3.64445        -1.90827
   N        4.49378        -2.61254        -1.56986
   C        2.48836        -7.87527        -3.21882
   C        1.55363        -8.89454        -3.26666
   S        0.12675        -8.53973        -2.30538
   C        1.63669       -10.10567        -3.99849
   C        0.67034       -11.08820        -4.11694
   C        1.08251       -12.12554        -4.95234
   C        2.37660       -11.93323        -5.46619
   S        3.08456       -10.47715        -4.92465
   C        2.69097       -13.02134        -6.31888
   C        1.59271       -13.89813        -6.35024
   C        0.54903       -13.36923        -5.48602
   C       -0.67306       -13.91890        -5.23451
   C       -1.08152       -15.13607        -5.82011
   N       -1.41352       -16.12494        -6.29573
   C       -1.60734       -13.30459        -4.37393
   N       -2.36742       -12.80460        -3.67626
   C        1.79522       -14.99174        -7.19099
   C        3.03944       -14.95610        -7.79413
   S        3.97666       -13.54932        -7.31018
   C        3.57428       -15.88009        -8.72702
   C        4.84147       -15.87740        -9.28283
   C        5.01213       -16.92174       -10.19007
   C        3.86389       -17.72166       -10.32904
   S        2.57985       -17.19623        -9.33206
   C        4.11774       -18.73708       -11.28305
   C        5.44532       -18.57618       -11.74547
   C        6.04792       -17.43650       -11.07200
   C        7.30894       -16.94373       -11.23377
   C        8.23572       -17.52033       -12.12834
   N        8.99279       -17.98046       -12.85561
   C        7.76670       -15.81804       -10.51691
   N        8.13427       -14.90185        -9.93368
   C        5.78235       -19.51803       -12.69936
   C        4.72585       -20.38836       -12.99090
   S        3.29041       -20.02153       -12.03503
   C        4.85314       -21.40925       -13.94863
   C        3.92445       -22.29575       -14.42399
   C        4.14465       -23.30236       -15.44798
   C        5.33923       -23.67441       -16.00365
   C        6.60343       -23.14463       -15.66659
   N        7.66685       -22.77454       -15.44143
   C        5.47561       -24.67639       -16.98866
   N        5.65766       -25.47749       -17.79032
   C        2.84455       -23.89550       -15.76001
   C        1.87305       -23.33057       -14.91405
   C        2.50578       -22.33622       -14.04010
   O        1.95876       -21.67036       -13.17657
   C        0.54730       -23.71506       -14.98374
   C        0.19042       -24.67345       -15.91780
   C        1.13533       -25.24022       -16.77193
   C        2.47157       -24.84921       -16.69096
   C        0.71385       -26.24945       -17.79108
   H        1.31286         2.32129         1.17960
   H        2.50604         1.00167         0.99445
   H        2.12666         1.66259         2.61221
   H       -1.64358        -3.26184         1.36146
   H        1.89571        -2.94615        -0.37621
   H        3.42312        -7.91884        -3.74829
   H       -0.28208       -11.03114        -3.62110
   H        1.08519       -15.77961        -7.36764
   H        5.58732       -15.14528        -9.02993
   H        6.73839       -19.59454       -13.18662
   H        5.84706       -21.46087       -14.37699
   H       -0.18087       -23.27174       -14.32224
   H       -0.83962       -24.99004       -15.99175
   H        3.19193       -25.29365       -17.35839
   H        0.29805       -25.74057       -18.66135
   H       -0.05518       -26.90663       -17.39159
   H        1.55919       -26.84707       -18.12140
*
