90
 SCF done       -193.147457495501          0.000713334602
C          -2.09503432334433   -3.19438619993691    2.69304952377446
C          -3.42332928530988   -3.48805620406368    2.65144488561072
S          -3.67264332061652   -5.16099447916741    2.31265901046536
C          -1.98031037089321   -5.47510122355332    2.22478297281527
C          -1.27000947568085   -4.33956324909618    2.44687014507542
C           0.13695347533478   -3.93999758591057    2.50609823555901
O           1.11557104264480   -4.64963283557578    2.35167929670680
C           0.12763799478176   -2.49332755925352    2.79066183883781
C          -1.24855368799722   -2.03829740040657    2.91868287496256
C          -1.71633242987876   -0.78147385618818    3.19805451489069
C          -3.10091883515746   -0.52113706733727    3.27571027258663
N          -4.22372129470043   -0.29392067971783    3.33911248744557
C          -0.93346380730537    0.36450466910488    3.43845416512552
N          -0.35432237853571    1.33415100256418    3.64628916724647
C           1.23709297826292   -1.69507344675798    2.89239233277154
C           2.60011688670770   -2.00549465832983    2.76118028887066
C           3.59001677201887   -1.01935164515151    2.85425966576102
C           4.86166712261419   -1.52643766576323    2.66981561836037
C           4.85231190621729   -2.92395312002891    2.44249072265186
S           3.28904722212283   -3.59906297155574    2.44880546017831
C           6.19092444659974   -3.34088210368423    2.24504845785583
C           7.04040093231503   -2.22350056037634    2.33988846671251
C           6.23353790318318   -1.04602628612944    2.61794268953671
C           6.67610736194138    0.23261649051928    2.78428015447909
C           5.79966672019704    1.30712858923450    3.04758740423617
N           5.09483660995137    2.18567138983856    3.25988349654097
C           8.04522595532239    0.56387045683011    2.70091728842396
N           9.15863689504946    0.82839674658681    2.63041715953225
C           8.38101474613056   -2.53903608804056    2.12895739532485
C           8.55939312160157   -3.88827171911554    1.87712502884064
S           7.04674988537725   -4.78143653801331    1.90887711076994
C           9.77577613992549   -4.55369880933659    1.58177659568936
C           9.96761829801047   -5.90594389917276    1.36148145629410
C          11.29463704815287   -6.19952614856444    1.05127179138605
C          12.11758638573016   -5.05962917585209    1.03343029380749
S          11.26302731045341   -3.63116520658693    1.41152372577341
C          13.42987800355000   -5.45462416413745    0.67145490616854
C          13.43850957493317   -6.84546549842085    0.46517296274278
C          12.09937262743126   -7.36090950451374    0.70488503492178
C          11.68525014252579   -8.65666095251892    0.61472189974972
C          10.34950536883837   -9.03541799779984    0.86743192408167
N           9.26334531949615   -9.34051471171102    1.07159896527758
C          12.56688042008934   -9.70046092218477    0.26161829729859
N          13.28453779605869  -10.54605404482247   -0.02826892755220
C          14.68485953040669   -7.32739898488465    0.06914511167856
C          15.62152392676466   -6.31428476789314   -0.03417434202928
S          14.95336166659398   -4.74158024608347    0.38080755644783
C          16.97013794806238   -6.42584866962313   -0.45539618701261
C          17.88780586279048   -5.40223709201666   -0.62084915814245
C          19.10949577335330   -5.87133479601603   -1.09856991185001
C          19.12293430752218   -7.26431056969749   -1.29097229809777
S          17.63241116276950   -7.99512549255140   -0.88225551113686
C          20.38871691540920   -7.64033897860348   -1.79798678998992
C          21.18012475906743   -6.47712773569817   -1.93729780964623
C          20.40863826458191   -5.33354440293936   -1.47912644034774
C          20.81108113677808   -4.03397350218023   -1.39746356654844
C          19.94689398866368   -3.01829619274027   -0.93420473952703
N          19.24020975308461   -2.19676558664331   -0.55950922326512
C          22.11349858823542   -3.60666287043812   -1.73820332326469
N          23.16858163690365   -3.23258826002310   -1.98293315352716
C          22.43235872374896   -6.73060267287499   -2.48012703294813
C          22.62175296409200   -8.07955885388622   -2.75327002393839
S          21.20537411595187   -9.04203418370979   -2.29904581249922
C          23.71657637330907   -8.80376723774918   -3.26667587639790
C          24.84901460907116   -8.37856183496517   -3.90477009422880
C          25.13139588935849   -7.01511304791491   -4.44068572907202
O          24.46072596622981   -6.01321839100311   -4.32545590042460
C          26.37958374138003   -7.15815481243652   -5.19962585421756
C          27.18421784789044   -6.35845807932398   -5.94451513536784
S          28.52968847524206   -7.24759174695130   -6.55425298729857
C          28.00485482418805   -8.70741597398304   -5.80178692146493
C          26.84589263119996   -8.50871586529982   -5.11498915476916
C          25.92764056530540   -9.27520410388163   -4.29865494743558
C          26.11738406162289  -10.58718646676258   -3.94949748962824
C          27.23341033478897  -11.31108586540766   -4.41985106342207
N          28.13206671477838  -11.91637839095438   -4.79736843968830
C          25.29381424433896  -11.35585822945797   -3.10422863780558
N          24.67546066365658  -12.03570251213555   -2.41484600846872
H          -4.27068090817821   -2.84777069099675    2.79327904495247
H          -1.62438342879422   -6.46432776541089    2.01756236469641
H           1.06241606123487   -0.64424889651087    3.09248598065991
H           3.35346367881300    0.01312822948003    3.04234991703960
H           9.19554475973688   -1.83737855026514    2.15026885255720
H           9.17022362359687   -6.62466493767727    1.42289894526811
H          14.91321249954245   -8.35580790845003   -0.14642345971714
H          17.65682952624134   -4.37383826976007   -0.40829631965351
H          23.17959527371952   -5.98638631841580   -2.68575524205551
H          23.61422058094955   -9.87599084657806   -3.14176599100013
H          27.07786525112243   -5.31625322628217   -6.16950130173499
H          28.58385990869704   -9.60074756512827   -5.92356295456626
