94
 SCF done       -216.859729826246          0.000336505608
C          -2.54422797965870   -0.70408417239969    5.45273164930434
C          -1.38995516186377   -1.14546954219621    4.87517338537895
C          -0.23898349558926   -0.43220568699358    5.35264343996293
C          -0.53741307179673    0.52898106132935    6.26107599348368
S          -2.23547716316308    0.57518096477840    6.55874874541825
C           0.97990000234678   -0.95044965645184    4.71956896170233
O           2.11984212388232   -0.61069014709853    4.93602008109299
C           0.49542960969836   -2.05714852401935    3.84780891288468
C          -0.95488433458775   -2.08496762303989    3.86024486020950
C          -1.72166280040664   -2.76736152819251    2.95069716358867
N          -3.14010891575077   -2.91242971591835    3.03095951397699
O          -3.73910699495248   -3.09716430385571    1.99463559875015
O          -3.65348270125714   -2.83395808481672    4.12990281584641
N          -1.15122192593510   -3.35332018141005    1.74902093889319
O          -1.47397851794975   -4.48520014209747    1.48191509952561
O          -0.39054950902250   -2.66265228031651    1.10783883625204
C           1.27383833702842   -3.06476004806748    3.33301647207451
C           2.65875731519139   -3.07078116574557    3.11304310941712
C           3.56985052043025   -2.02165451294446    3.00900590237074
C           4.84399710653384   -2.46737584059357    2.70159178869385
C           4.92416104344435   -3.87564851707116    2.56358767668260
S           3.42350631157688   -4.63439767588642    2.79243635379595
C           6.25877576875154   -4.22038050841827    2.25738816405834
C           7.02773322050356   -3.04210231067899    2.19698201186878
C           6.16217014815618   -1.90247791199420    2.46587652462024
C           6.51831446286450   -0.58706625678170    2.47383700005544
C           5.59601465579765    0.45711512248154    2.70731377413456
N           4.86591757343040    1.32373984425513    2.87649074573209
C           7.84689698913051   -0.17815433121434    2.22666557020314
N           8.92789889303694    0.14623741982603    2.02574482329706
C           8.36305600156204   -3.28231665973637    1.88730067122915
C           8.61798460004722   -4.63308415900940    1.70968730057008
S           7.18509870041151   -5.62138224179694    1.93324450751329
C           9.85395691299018   -5.23415943764557    1.36697748047129
C          10.11078764925257   -6.57929126345835    1.16333419509457
C          11.43909769286646   -6.80740258097312    0.81154788259312
C          12.19978613949483   -5.62501511375043    0.74967881577432
S          11.28221234840380   -4.23672194392045    1.12641592299129
C          13.52232499695898   -5.95794483115270    0.36650236990845
C          13.59923345465555   -7.35090907807352    0.18315004179428
C          12.29450053592070   -7.93107353808277    0.46224648222192
C          11.94612245109188   -9.24771516777923    0.40454075209581
C          10.63861512188112   -9.68809295681968    0.70224133434997
N           9.57534471437664  -10.04049540629330    0.94541664901061
C          12.87090712359451  -10.25061413517660    0.04254929569557
N          13.62443488405409  -11.06153330644118   -0.25454916580600
C          14.86427804551364   -7.77582073358200   -0.21629539019088
C          15.74977431591297   -6.71840768162740   -0.33786529575765
S          15.00606218891738   -5.17455682059070    0.05415076839278
C          17.10617703462408   -6.77024367472191   -0.74342868982458
C          17.98965848083040   -5.70883344320412   -0.85725933311440
C          19.23921292851808   -6.12042374375518   -1.31094530140912
C          19.30946285950071   -7.50780002591733   -1.54340748394457
S          17.83590629489238   -8.30141540934765   -1.19645100268204
C          20.60707915036055   -7.82790206181465   -2.00527114898496
C          21.35821226129254   -6.63106709823152   -2.07475686789777
C          20.52973918955323   -5.52657717250847   -1.62490263005438
C          20.90604677584778   -4.22454985865959   -1.48468322348498
C          20.01712070271973   -3.23858052516578   -1.00665753152114
N          19.28180007965499   -2.44512870648576   -0.62760874044862
C          22.20548308087858   -3.79149474022053   -1.82833256382895
N          23.25446680509066   -3.45011658725421   -2.13826311986144
C          22.66619952538354   -6.83771922440332   -2.47838984674340
C          22.94057689429869   -8.18427168084385   -2.70512600396832
S          21.51287026374193   -9.19000825771912   -2.46649281027177
C          24.14365454104367   -8.79766672340750   -3.09877039038821
C          25.42835847135363   -8.34053530997485   -3.00979393238347
C          26.04542909036954   -7.22435447192103   -2.31993055995734
C          25.59573955793851   -6.61717153194957   -1.17159685418149
N          26.22404874145215   -5.46881639295974   -0.57591314407073
O          26.75458513338089   -4.67123874951108   -1.31833583279768
O          26.19450544943729   -5.39081456829484    0.63051488677506
N          24.47944181269643   -7.10475046705234   -0.41346430623082
O          23.75196228235346   -6.27980220859283    0.09931812298786
O          24.30259803822157   -8.30367442097847   -0.36611570414672
C          27.34961681778416   -7.03446615232452   -2.93772971011714
C          28.39561178206067   -6.15876482384227   -2.89326190110866
S          29.69895301436503   -6.69011662151322   -3.87908453445463
C          28.85081896852203   -8.10785801715492   -4.37191679313331
C          27.62125088445044   -8.15010964461152   -3.80261280624840
C          26.45736910264469   -9.03914001074824   -3.84205295682614
O          26.31034045534612  -10.07681933272656   -4.43988730335600
H          -3.54486742598788   -1.06780331084600    5.33049199821920
H           0.12191685253210    1.20927086754090    6.76178264825579
H           0.78207987809451   -4.00208830814579    3.09253423148415
H           3.29150205230596   -0.99367375695715    3.14369011028172
H           9.12370255953664   -2.52881669672846    1.78843721841956
H           9.35601600268239   -7.33834358088508    1.26564765850653
H          15.14349925087850   -8.79497615532460   -0.41528373721622
H          17.71902662930141   -4.69579183693006   -0.61880586533127
H          23.38577320147432   -6.05632505150527   -2.64629586676292
H          24.05207078795426   -9.76980542986681   -3.57429237874154
H          28.47437930419855   -5.21923763595342   -2.38327099318394
H          29.30691504885660   -8.81131413503111   -5.03919553772651
