# ORCA input file
# SCF done       -193.143046622480          0.000728820003
! CAM-B3LYP def2-SVP def2/J RIJCOSX Grid4 TightSCF
%maxcore 5000
%tddft
    Mode sTDDFT
    Ethresh 5.0
    maxcore 5000
end

%pal
  nprocs 6
  end
* xyz 0 1
   C       -3.01453         0.69840         1.33333
   C       -2.81561         2.04591         1.40114
   S       -1.19894         2.53473         1.04221
   C       -0.75416         0.89808         0.80860
   C       -1.82607         0.03221         0.99136
   C       -1.37542        -1.34175         0.74548
   O       -2.01369        -2.36762         0.74887
   C        0.10412        -1.22121         0.52178
   C        0.43247         0.19214         0.40156
   C        1.51870         0.78778        -0.18840
   C        1.60588         2.19292        -0.29296
   N        1.68160         3.33369        -0.38364
   C        2.57532         0.10972        -0.82050
   N        3.44307        -0.39230        -1.38064
   C        0.85789        -2.35071         0.55026
   C        2.25762        -2.48119         0.70885
   C        3.15408        -1.59561         1.28486
   C        4.45684        -2.08016         1.26655
   C        4.55846        -3.35543         0.67692
   S        3.04954        -3.96135         0.17816
   C        5.92581        -3.72695         0.65095
   C        6.68650        -2.68955         1.21771
   C        5.78694        -1.61905         1.62162
   C        6.11623        -0.41572         2.17212
   C        5.12992         0.54696         2.47481
   N        4.31563         1.31733         2.71570
   C        7.45023        -0.06443         2.46677
   N        8.53601         0.21056         2.71118
   C        8.05626        -2.94647         1.19721
   C        8.34261        -4.17035         0.61793
   S        6.89495        -5.02103         0.10152
   C        9.61885        -4.73875         0.37769
   C        9.89628        -5.94953        -0.23115
   C       11.26712        -6.16436        -0.36206
   C       12.03869        -5.10939         0.15550
   S       11.07800        -3.85868         0.81020
   C       13.40851        -5.40154        -0.06519
   C       13.50235        -6.63911        -0.72566
   C       12.16103        -7.16668        -0.92073
   C       11.81362        -8.34898        -1.50411
   C       10.46774        -8.75398        -1.63005
   N        9.37395        -9.08267        -1.72915
   C       12.77723        -9.24476        -2.01427
   N       13.56194        -9.97025        -2.42924
   C       14.81608        -6.99651        -1.02541
   C       15.72143        -6.04274        -0.59666
   S       14.93565        -4.68581         0.19931
   C       17.12908        -6.04982        -0.76550
   C       18.03655        -5.11262        -0.30387
   C       19.34006        -5.41807        -0.69129
   C       19.42433        -6.59484        -1.45636
   S       17.90016        -7.33175        -1.68696
   C       20.77375        -6.80906        -1.83000
   C       21.54786        -5.75685        -1.28720
   C       20.67480        -4.85695        -0.55039
   C       21.02269        -3.72608         0.12708
   C       20.06624        -2.93586         0.79916
   N       19.28537        -2.29619         1.34284
   C       22.35663        -3.27174         0.20349
   N       23.43766        -2.89722         0.27082
   C       22.88530        -5.86717        -1.62140
   C       23.14746        -6.98479        -2.42000
   S       21.68739        -7.91837        -2.74297
   C       24.43942        -7.26761        -2.89934
   C       24.88228        -8.27542        -3.70928
   C       26.25649        -8.44647        -4.16757
   C       27.36521        -7.68506        -3.90240
   C       28.61726        -8.02641        -4.45771
   N       29.63660        -8.30039        -4.90701
   C       27.40571        -6.53228        -3.09512
   N       27.50410        -5.58675        -2.45105
   C       26.24965        -9.61716        -5.00280
   C       24.97907       -10.17129        -5.08533
   C       24.93059       -11.31626        -5.89761
   C       26.16212       -11.60102        -6.40972
   S       27.39674       -10.49642        -5.92150
   C       24.06032        -9.36401        -4.27919
   O       22.86824        -9.54657        -4.10917
   H       -3.95533         0.21260         1.51367
   H       -3.53873         2.80182         1.63767
   H        0.29204        -3.27584         0.49223
   H        2.85376        -0.66451         1.72976
   H        8.81749        -2.28531         1.57114
   H        9.12747        -6.62310        -0.56487
   H       15.11463        -7.89609        -1.53314
   H       17.74536        -4.25726         0.27904
   H       23.65880        -5.18184        -1.32254
   H       25.17912        -6.54828        -2.56699
   H       24.04381       -11.89078        -6.09081
   H       26.42801       -12.41135        -7.06009
*
