# ORCA input file
# SCF done       -271.217830148051          0.000252089832
! CAM-B3LYP def2-SVP def2/J RIJCOSX Grid4 TightSCF
%maxcore 5000
%tddft
    Mode sTDDFT
    Ethresh 5.0
    maxcore 5000
end

%pal
  nprocs 6
  end
* xyz 0 1
   C       11.90545        -5.30998        14.00159
   C       12.90646        -6.20594        14.26293
   C       13.67159        -6.73780        13.21473
   C       13.42560        -6.36613        11.92100
   C       12.40155        -5.44703        11.61620
   C       12.13743        -5.06632        10.27972
   C       11.13585        -4.17107        10.02283
   C       10.37346        -3.62006        11.09406
   C       10.60063        -3.97658        12.39109
   C       11.62597        -4.90606        12.68142
   C        9.39455        -2.65731        10.54978
   O        8.54493        -2.03800        11.15194
   C        9.71521        -2.55679         9.10384
   C       10.62577        -3.62592         8.76907
   C       10.76529        -4.21246         7.53484
   C       10.01935        -3.82654         6.40389
   N        9.39233        -3.57354         5.47482
   C       11.59515        -5.32137         7.28512
   N       12.26944        -6.21453         7.02624
   C        9.22940        -1.51838         8.36203
   C        9.73527        -0.99349         7.15648
   C        9.04454        -0.21132         6.23951
   C        9.79628         0.16591         5.13598
   C       11.11768        -0.29718         5.23824
   S       11.40641        -1.20625         6.66169
   C       11.97262         0.04111         4.16899
   C       11.39031         0.77092         3.12582
  Si        9.56829         1.02598         3.48782
   C        8.45609         0.02179         2.37963
   C        8.23481        -1.33986         2.61532
   C        7.41340        -2.08237         1.78798
   C        6.79275        -1.48458         0.70381
   C        6.99816        -0.13811         0.45127
   C        7.81977         0.60325         1.27880
   C        9.09187         2.82414         3.58614
   C       10.04712         3.84439         3.58271
   C        9.67647         5.17470         3.64310
   C        8.33715         5.51984         3.70980
   C        7.37199         4.52621         3.71596
   C        7.74658         3.19770         3.65471
   C       12.31898         1.05462         2.12621
   C       13.58465         0.55807         2.38379
   S       13.64160        -0.29304         3.90894
   C       14.74988         0.66460         1.58499
   C       15.98772         0.09388         1.81552
   C       16.93236         0.38281         0.83243
   C       16.39558         1.20173        -0.16736
   S       14.74363         1.59938         0.10622
   C       17.28109         1.55506        -1.21326
   C       18.57245         1.02207        -1.12132
  Si       18.71398        -0.02122         0.42709
   C       19.95869         0.66870         1.63199
   C       20.45474         1.96988         1.51176
   C       21.37858         2.47174         2.40902
   C       21.82997         1.68333         3.45419
   C       21.35200         0.39093         3.59473
   C       20.42943        -0.10743         2.69468
   C       18.97323        -1.84023         0.11187
   C       20.26292        -2.36747        -0.00001
   C       20.47123        -3.71430        -0.22771
   C       19.39065        -4.57256        -0.34851
   C       18.10335        -4.07397        -0.24098
   C       17.89936        -2.72560        -0.01518
   C       19.37249         1.43817        -2.18327
   C       18.72561         2.27581        -3.07604
   S       17.06797         2.55511        -2.59540
   C       19.26941         2.88007        -4.23857
   C       20.55151         2.72456        -4.74253
   C       20.79580         3.46415        -5.89574
   C       19.66729         4.20106        -6.28059
   S       18.32810         3.97217        -5.22119
   C       19.81575         4.99564        -7.43742
   C       21.08085         4.93139        -8.05655
  Si       22.19121         3.75952        -7.11357
   C       23.68483         4.60176        -6.38585
   C       24.42365         3.98559        -5.37121
   C       25.55351         4.57972        -4.84307
   C       25.97681         5.80947        -5.32045
   C       25.26284         6.43733        -6.32684
   C       24.13098         5.84144        -6.85206
   C       22.62613         2.19618        -8.03432
   C       23.93903         1.93275        -8.43257
   C       24.26248         0.77654        -9.11760
   C       23.27770        -0.14822        -9.42209
   C       21.96856         0.09079        -9.03738
   C       21.64885         1.24785        -8.35339
   C       21.15673         5.76949        -9.15475
   C       19.98952         6.48742        -9.40303
   S       18.74068         6.06283        -8.23029
   C       19.64362         7.41458       -10.39563
   C       20.42794         8.08838       -11.30216
   C       19.89117         8.95597       -12.33200
   C       18.58981         9.01254       -12.76734
   C       18.13726         9.87546       -13.78558
   N       17.70015        10.55652       -14.60088
   C       17.53060         8.20310       -12.30857
   N       16.61720         7.57013       -12.01533
   C       20.99758         9.71480       -12.90554
   C       22.20440         9.26563       -12.30208
   C       23.41981         9.78369       -12.64190
   C       23.48507        10.80026       -13.62148
   C       24.70984        11.37301       -14.01593
   C       24.74818        12.35922       -14.96405
   C       23.56279        12.81514       -15.55905
   C       22.35657        12.27920       -15.19786
   C       22.28086        11.26164       -14.22555
   C       21.03597        10.70281       -13.85248
   C       21.90038         8.21755       -11.30975
   O       22.72328         7.63502       -10.62894
   H       11.31298        -4.89686        14.80500
   H       13.11393        -6.50937        15.27833
   H       14.45712        -7.44456        13.43738
   H       14.00993        -6.77521        11.10973
   H       12.74347        -5.48366         9.49048
   H       10.00677        -3.55559        13.18884
   H        8.38966        -0.98425         8.79643
   H        8.00455         0.03005         6.37074
   H        8.70754        -1.81944         3.46006
   H        7.25664        -3.13104         1.99282
   H        6.14951        -2.06446         0.05803
   H        6.51560         0.33445        -0.39225
   H        7.97256         1.65454         1.07794
   H       11.09457         3.58374         3.52698
   H       10.43340         5.94566         3.63613
   H        8.04604         6.55900         3.75520
   H        6.32541         4.78960         3.76670
   H        6.98806         2.42787         3.65433
   H       12.09242         1.60346         1.22873
   H       16.18289        -0.51864         2.67850
   H       20.10983         2.59038         0.69667
   H       21.74934         3.47999         2.29323
   H       22.55243         2.07384         4.15582
   H       21.70103        -0.22917         4.40773
   H       20.06498        -1.11869         2.80758
   H       21.11111        -1.70477         0.10017
   H       21.47804        -4.09795        -0.30926
   H       19.55175        -5.62611        -0.52361
   H       17.25670        -4.73889        -0.33105
   H       16.89143        -2.34543         0.07120
   H       20.39993         1.14545        -2.30146
   H       21.28169         2.08673        -4.27894
   H       24.10190         3.02338        -4.99816
   H       26.10769         4.08407        -4.05885
   H       26.86072         6.27502        -4.90937
   H       25.58932         7.39483        -6.70555
   H       23.58444         6.33957        -7.63912
   H       24.71264         2.64938        -8.19562
   H       25.28507         0.59507        -9.41539
   H       23.52911        -1.05252        -9.95666
   H       21.19664        -0.62804        -9.27130
   H       20.62548         1.42638        -8.05402
   H       22.02926         5.87257        -9.77191
   H       18.58527         7.64861       -10.41845
   H       24.32145         9.42220       -12.16974
   H       25.61952        11.01770       -13.55376
   H       25.69167        12.79320       -15.26031
   H       23.60993        13.59363       -16.30591
   H       21.44100        12.62620       -15.65420
   H       20.14244        11.07840       -14.32495
*
