# ORCA input file
# SCF done       -309.778888772494          0.000572475176
! CAM-B3LYP def2-SVP def2/J RIJCOSX Grid4 TightSCF
%maxcore 5000
%tddft
    Mode sTDDFT
    Ethresh 5.0
    maxcore 5000
end

%pal
  nprocs 6
  end
* xyz 0 1
   C        0.09467         1.35681         1.50548
   C       -0.84410         0.97666         0.58526
   C       -0.45838         0.63071        -0.71842
   C        0.85947         0.67124        -1.08413
   C        1.85256         1.06004        -0.16239
   C        3.21478         1.11307        -0.53758
   C        4.15063         1.49105         0.38622
   C        3.75577         1.81498         1.71817
   C        2.44626         1.78481         2.10263
   C        1.46044         1.40685         1.16315
   C        4.95129         2.13539         2.51964
   O        5.00613         2.50595         3.66924
   C        6.10577         1.82856         1.62511
   C        5.59290         1.67179         0.27830
   C        6.28153         1.92727        -0.87686
   C        7.60732         2.41112        -0.89169
   N        8.66136         2.86305        -0.94044
   C        5.71322         1.83349        -2.16297
   N        5.29937         1.75149        -3.23040
   C        7.33102         1.60500         2.16240
   C        8.43830         0.91015         1.60737
   C        9.71799         0.93068         2.09739
   C       10.61921         0.10497         1.39067
   C       11.98600        -0.12607         1.65695
   C       12.71569         0.59189         2.67993
   C       13.70173         0.11837         3.49932
   C       14.25077         1.12026         4.32686
   C       13.71205         2.36178         4.14674
   S       12.48001         2.30115         2.93390
   C       14.05487         3.63435         4.82945
  Cl       15.50116         0.78748         5.46211
   C       12.61739        -1.07654         0.86076
   C       11.97736        -1.75502        -0.20795
   C       10.61740        -1.51040        -0.48655
   C        9.97459        -0.59590         0.34003
   S        8.28401        -0.20224         0.26077
   C        9.90039        -2.15615        -1.56727
   C        8.95350        -1.60079        -2.38008
   C        8.40483        -2.52454        -3.29560
   C        8.91233        -3.78726        -3.19552
   S       10.10626        -3.84637        -1.94298
   C        8.56308        -4.99672        -3.98216
  Cl        7.19251        -2.07416        -4.43207
   C       12.87109        -2.60034        -0.90558
   C       14.13655        -2.60431        -0.39157
   S       14.29138        -1.53916         0.98373
   C       15.25471        -3.36672        -0.84471
   C       15.32825        -4.14467        -1.96455
   C       16.57800        -4.78800        -2.12769
   C       16.99041        -5.63476        -3.17762
   C       16.16622        -5.89622        -4.33967
   C       16.06017        -7.05669        -5.05253
   C       15.21649        -6.93400        -6.17717
   C       14.67611        -5.69298        -6.34797
   S       15.21300        -4.63873        -5.08506
   C       13.76679        -5.21118        -7.41808
  Cl       14.90566        -8.25351        -7.23911
   C       18.25833        -6.19618        -3.05597
   C       19.12922        -5.92593        -1.97135
   C       18.74016        -5.03091        -0.95523
   C       17.45772        -4.50373        -1.05300
   S       16.73698        -3.39761         0.08027
   C       19.64715        -4.67936         0.11795
   C       20.98661        -4.42541         0.03641
   C       21.56080        -4.12184         1.28971
   C       20.68156        -4.14337         2.33317
   S       19.09478        -4.53823         1.76470
   C       20.93612        -3.88125         3.77188
  Cl       23.23625        -3.76218         1.46724
   C       20.34191        -6.64994        -2.07389
   C       20.43344        -7.40809        -3.20323
   S       19.00122        -7.27888        -4.20237
   C       21.51628        -8.23970        -3.60885
   C       21.61730        -8.97077        -4.75622
   C       22.83420        -9.68289        -4.87397
   C       23.23583       -10.54977        -5.91044
   C       22.43928       -10.76852        -7.10029
   C       22.28473       -11.92904        -7.80415
   C       21.48283       -11.76909        -8.95474
   C       21.02822       -10.49822        -9.15556
   S       21.59077        -9.46321        -7.88818
   C       20.17390        -9.97501       -10.25074
  Cl       21.11973       -13.08088       -10.00863
   C       24.46532       -11.18269        -5.74562
   C       25.30013       -10.98476        -4.61262
   C       24.89232       -10.11979        -3.57109
   C       23.67043        -9.48241        -3.74520
   S       22.93462        -8.39575        -2.59729
   C       25.68386        -9.91305        -2.37786
   C       25.85157        -8.75301        -1.67337
   C       26.64620        -8.92641        -0.52187
   C       27.07982       -10.20619        -0.32185
   S       26.50755       -11.23086        -1.58939
   C       27.92324       -10.74288         0.77530
  Cl       27.02368        -7.62215         0.53715
   C       26.52192       -11.67635        -4.72197
   C       26.64848       -12.40110        -5.88071
   S       25.21178       -12.25069        -6.89130
   C       27.67414       -13.24037        -6.37366
   C       28.93032       -13.50707        -5.90856
   C       29.84272       -14.43122        -6.57158
   C       29.52799       -15.35549        -7.53293
   C       30.46649       -16.23211        -8.11861
   N       31.17480       -16.97008        -8.63990
   C       28.24237       -15.61702        -8.05398
   N       27.23751       -15.91935        -8.52088
   C       31.16273       -14.26376        -5.97673
   C       31.05375       -13.34523        -4.89629
   C       32.12905       -12.99730        -4.13058
   C       33.39205       -13.55804        -4.42260
   C       34.53863       -13.23727        -3.66964
   C       35.75304       -13.78890        -3.97556
   C       35.87382       -14.68558        -5.04775
   C       34.77938       -15.01872        -5.79835
   C       33.51305       -14.46996        -5.51057
   C       32.37943       -14.81495        -6.28163
   C       29.66302       -12.87517        -4.78145
   O       29.24614       -12.11809        -3.92864
   H       -0.19639         1.62394         2.51090
   H       -1.88850         0.93988         0.85679
   H       -1.21152         0.33210        -1.43217
   H        1.16108         0.40919        -2.08764
   H        3.48917         0.84020        -1.54491
   H        2.16423         2.04403         3.11233
   H        7.45454         1.92520         3.19257
   H        9.99501         1.53715         2.93992
   H       14.00765        -0.90994         3.54742
   H       13.18004         4.05236         5.32617
   H       14.41398         4.37003         4.11024
   H       14.83115         3.45565         5.56916
   H        8.68035        -0.56183        -2.36686
   H        7.92773        -4.71549        -4.81820
   H        8.02802        -5.71675        -3.36256
   H        9.46102        -5.48278        -4.36026
   H       12.58944        -3.18731        -1.75843
   H       14.50662        -4.25831        -2.64532
   H       16.52964        -7.98187        -4.77597
   H       14.30093        -4.55972        -8.11046
   H       12.94075        -4.64309        -6.99402
   H       13.37252        -6.05874        -7.97351
   H       21.54218        -4.40732        -0.88279
   H       20.66680        -4.74855         4.37377
   H       20.34160        -3.03625         4.11761
   H       21.98932        -3.65870         3.92353
   H       21.11486        -6.63303        -1.32744
   H       20.82736        -8.99871        -5.48374
   H       22.69043       -12.87750        -7.50545
   H       20.69639        -9.19830       -10.80857
   H       19.25857        -9.54095        -9.84957
   H       19.91499       -10.78385       -10.92925
   H       25.46425        -7.79847        -1.97709
   H       28.23937        -9.93145         1.42611
   H       28.80361       -11.23934         0.36930
   H       27.36884       -11.47288         1.36497
   H       27.30566       -11.63631        -3.98955
   H       27.39588       -13.73509        -7.29738
   H       32.01689       -12.29960        -3.31385
   H       34.43955       -12.54549        -2.84583
   H       36.62720       -13.53699        -3.39391
   H       36.83932       -15.11159        -5.27595
   H       34.86695       -15.71006        -6.62361
   H       32.50685       -15.50458        -7.10055
*
