162
 SCF done       -309.778888772494          0.000572475176
C           0.09467262493548    1.35681447959504    1.50548404263606
C          -0.84410199838923    0.97666024778373    0.58526211792716
C          -0.45837549008625    0.63071336973373   -0.71841673157491
C           0.85947346920103    0.67124364830397   -1.08413481339853
C           1.85255998562861    1.06003617900685   -0.16239014517648
C           3.21478181962513    1.11307240472419   -0.53757671208400
C           4.15063093493660    1.49104697873859    0.38622036700268
C           3.75577135961269    1.81497854039086    1.71817453044317
C           2.44625608741737    1.78480542471437    2.10262679448973
C           1.46043651084828    1.40684589936768    1.16315366604373
C           4.95129310849366    2.13539235205666    2.51964362749816
O           5.00612527058459    2.50594861554944    3.66924143873719
C           6.10576862248584    1.82855731544606    1.62511120709957
C           5.59289677900904    1.67179166312069    0.27830452889543
C           6.28152574118652    1.92726911839146   -0.87686001732400
C           7.60731823189475    2.41112408598344   -0.89169003573217
N           8.66136128094675    2.86305420880468   -0.94043863347035
C           5.71321863469403    1.83349344968954   -2.16296593657605
N           5.29937482403238    1.75149245722306   -3.23040405789317
C           7.33101970473758    1.60500477358138    2.16240134668770
C           8.43829633965385    0.91015411510831    1.60737045043025
C           9.71798797811293    0.93068472795219    2.09738824721514
C          10.61921066151694    0.10496768614068    1.39067420307740
C          11.98600332272868   -0.12606729786235    1.65694993812194
C          12.71568713285992    0.59188928707924    2.67993133897096
C          13.70172921546015    0.11837278095688    3.49932413332707
C          14.25077411430711    1.12025857915379    4.32685796770156
C          13.71204737375886    2.36177751629711    4.14674319648921
S          12.48000912691211    2.30114500285481    2.93390452146047
C          14.05487151420524    3.63435486809415    4.82945099076585
Cl         15.50116271470021    0.78748267043577    5.46211232414643
C          12.61739114366839   -1.07654322182264    0.86075860298779
C          11.97736115786548   -1.75502396610849   -0.20794568077026
C          10.61739770564622   -1.51040156809955   -0.48655315377817
C           9.97458595955261   -0.59589589516150    0.34002919280430
S           8.28400793562117   -0.20224291885866    0.26076850826340
C           9.90038768348986   -2.15615257458944   -1.56726693739471
C           8.95349554677346   -1.60079021948882   -2.38007774543852
C           8.40482841988140   -2.52453746242541   -3.29560442687276
C           8.91233348667207   -3.78726234024799   -3.19551636302597
S          10.10626009080326   -3.84637192692801   -1.94298481585525
C           8.56308179158400   -4.99671681722154   -3.98215950636641
Cl          7.19251464842758   -2.07415584763612   -4.43206552768281
C          12.87109332712433   -2.60033548945424   -0.90558235042867
C          14.13654568527594   -2.60431292767610   -0.39157451963264
S          14.29137691563263   -1.53916026364059    0.98373307641931
C          15.25470571646241   -3.36671931509822   -0.84471204900261
C          15.32824973508673   -4.14466841482018   -1.96455352786969
C          16.57800137463592   -4.78799839081668   -2.12768626954250
C          16.99041369820626   -5.63475940362251   -3.17761687334552
C          16.16621982365353   -5.89622371354665   -4.33966539157777
C          16.06017088254445   -7.05668799571807   -5.05253331550767
C          15.21649005058739   -6.93400083550482   -6.17716663500776
C          14.67610627254968   -5.69298295639668   -6.34797231885315
S          15.21300112902493   -4.63873026591571   -5.08505521513500
C          13.76679270712551   -5.21118445197460   -7.41808230098383
Cl         14.90565730492294   -8.25350588508139   -7.23911431246621
C          18.25832895583981   -6.19618496959163   -3.05596782848617
C          19.12922248852715   -5.92593466771422   -1.97134876976925
C          18.74015565982120   -5.03090697175422   -0.95522873957441
C          17.45771896368087   -4.50372839293172   -1.05299803250449
S          16.73697675405090   -3.39760888903701    0.08026847913041
C          19.64715300340956   -4.67935810323447    0.11794688494581
C          20.98661021514902   -4.42540585541358    0.03641206178053
C          21.56079678201266   -4.12184409172445    1.28971385835152
C          20.68155873333825   -4.14336933704582    2.33316742672768
S          19.09478282329969   -4.53822936993768    1.76470061635730
C          20.93611957513863   -3.88125055283955    3.77187846032168
Cl         23.23625122299177   -3.76218004328409    1.46724483281682
C          20.34191444270716   -6.64993950440482   -2.07389008358708
C          20.43344447779366   -7.40809229592867   -3.20322791141121
S          19.00121601787861   -7.27888096883083   -4.20237170231957
C          21.51627842858925   -8.23969999820118   -3.60885151858303
C          21.61729620899173   -8.97077100192647   -4.75621838134511
C          22.83419594341448   -9.68288889122632   -4.87397445902023
C          23.23583303837448  -10.54977294739521   -5.91044044309132
C          22.43928197480403  -10.76851595965469   -7.10029094687337
C          22.28472932406277  -11.92903502059282   -7.80415126136699
C          21.48283430323896  -11.76908797439890   -8.95473553560697
C          21.02822497652924  -10.49822117534460   -9.15556348470080
S          21.59077353708080   -9.46320708839131   -7.88817737811284
C          20.17390146647691   -9.97500879500156  -10.25073933103308
Cl         21.11972599482038  -13.08087912074146  -10.00863221694565
C          24.46532141881887  -11.18269481691078   -5.74562347754661
C          25.30012847811411  -10.98476180199982   -4.61261776348425
C          24.89232130528732  -10.11978895668492   -3.57109242704922
C          23.67042592942544   -9.48241379484557   -3.74519531456041
S          22.93461974318124   -8.39574923585056   -2.59729327712577
C          25.68386327721940   -9.91304626026304   -2.37786048843254
C          25.85157411412778   -8.75301197311859   -1.67336584672947
C          26.64619726709637   -8.92640869955618   -0.52186575567914
C          27.07982013962838  -10.20619202715784   -0.32184840120386
S          26.50754933700921  -11.23086268499280   -1.58939306312139
C          27.92323961911753  -10.74287556696890    0.77529710749042
Cl         27.02367707766556   -7.62214879743795    0.53714713813361
C          26.52192292588103  -11.67634601805378   -4.72197136295681
C          26.64848175216379  -12.40110497285618   -5.88071152868139
S          25.21177786935157  -12.25068802985557   -6.89130016053929
C          27.67413634209619  -13.24037230013966   -6.37365999834366
C          28.93032320014376  -13.50706993039841   -5.90856411754911
C          29.84272324401481  -14.43122180750420   -6.57158192396538
C          29.52799465398115  -15.35549456392586   -7.53293052315424
C          30.46649375002792  -16.23210963608172   -8.11860849964456
N          31.17480453206479  -16.97007969481127   -8.63990143938023
C          28.24236500609800  -15.61702252659108   -8.05398224577185
N          27.23751465851944  -15.91935014264539   -8.52088048773611
C          31.16273430830221  -14.26375555564559   -5.97673286278725
C          31.05374607856200  -13.34522733817759   -4.89629007795175
C          32.12904951167553  -12.99730252902831   -4.13058029553118
C          33.39204951377770  -13.55803898938856   -4.42260315960477
C          34.53863134155947  -13.23726589161347   -3.66963791643962
C          35.75303507727570  -13.78890322045357   -3.97555684036379
C          35.87382254676439  -14.68557832865284   -5.04775018220748
C          34.77938082416581  -15.01871514221168   -5.79834803967942
C          33.51304689886147  -14.46996423832243   -5.51057178767235
C          32.37943476293756  -14.81495220087592   -6.28163409201325
C          29.66302297265088  -12.87516842650775   -4.78145005608936
O          29.24613698802004  -12.11809008598997   -3.92863620088418
H          -0.19638789560695    1.62394061820446    2.51089853600843
H          -1.88850475167947    0.93988330941496    0.85679263521492
H          -1.21152283273608    0.33210285243878   -1.43217044843723
H           1.16108378315345    0.40918764958955   -2.08763749947584
H           3.48917380430978    0.84019952397530   -1.54491386774831
H           2.16423449222952    2.04402797790647    3.11233072997410
H           7.45454089346574    1.92520172154590    3.19257410150790
H           9.99500919001905    1.53714717771498    2.93992056847027
H          14.00765056185193   -0.90994447682994    3.54742068748145
H          13.18004468844745    4.05236437266198    5.32616519772870
H          14.41397948830974    4.37002848834847    4.11024346003629
H          14.83115023071869    3.45565253405201    5.56916254689346
H           8.68035042855857   -0.56183441639088   -2.36686355882587
H           7.92772591290362   -4.71548977374291   -4.81820342278982
H           8.02802465710008   -5.71674675713566   -3.36255789800432
H           9.46101870996483   -5.48277634661649   -4.36025653846006
H          12.58944172976810   -3.18731238971156   -1.75843145000823
H          14.50662383307142   -4.25831089306623   -2.64531846452329
H          16.52963972381422   -7.98187047179160   -4.77597205938023
H          14.30093272497115   -4.55972252476980   -8.11046289303101
H          12.94074727221092   -4.64309202245676   -6.99402256475165
H          13.37251877354760   -6.05874453106695   -7.97350552361744
H          21.54218394451275   -4.40731864788697   -0.88278554368378
H          20.66680274899429   -4.74855173473795    4.37377092006147
H          20.34159592481350   -3.03625026034029    4.11760763455961
H          21.98932394273441   -3.65869534412203    3.92353339604603
H          21.11486471856825   -6.63303322764279   -1.32744137557027
H          20.82735775561376   -8.99870693072516   -5.48374401306429
H          22.69042650575633  -12.87750481970643   -7.50544768603270
H          20.69639323834573   -9.19829596267945  -10.80857382700698
H          19.25856553385401   -9.54095288430910   -9.84956788345811
H          19.91498824183629  -10.78384587287046  -10.92925190912436
H          25.46425191073035   -7.79846833632213   -1.97708873290818
H          28.23937174476725   -9.93145402183059    1.42611396292545
H          28.80360604497402  -11.23933639278641    0.36929528624765
H          27.36884313525264  -11.47288170287368    1.36496696441253
H          27.30566281770318  -11.63631401306961   -3.98955384649397
H          27.39588201196933  -13.73509030408557   -7.29738145927285
H          32.01689238636953  -12.29960409393388   -3.31385397722009
H          34.43954921206722  -12.54549264652634   -2.84583068060459
H          36.62719666198772  -13.53699238207339   -3.39390888090765
H          36.83931650963337  -15.11159297241025   -5.27594735050771
H          34.86694738096464  -15.71006000532742   -6.62361328612877
H          32.50685324244616  -15.50458097232892   -7.10055325437980
