# ORCA input file
# SCF done       -230.675957317105          0.000774038930
! CAM-B3LYP def2-SVP def2/J RIJCOSX Grid4 TightSCF
%maxcore 5000
%tddft
    Mode sTDDFT
    Ethresh 5.0
    maxcore 5000
end

%pal
  nprocs 6
  end
* xyz 0 1
   C       -0.49579        -5.11464        -0.31249
   C       -1.36667        -5.87281         0.45197
   C       -2.47477        -5.29534         1.06400
   C       -2.74132        -3.93857         0.92677
   C       -1.87932        -3.18755         0.15319
   C       -0.75862        -3.76171        -0.47600
   C       -0.07032        -2.74595        -1.26381
   C        0.99556        -2.94732        -2.08851
   C        1.63405        -4.19376        -2.28228
   N        2.20604        -5.16660        -2.48647
   C        1.60632        -1.94453        -2.87615
   N        2.15702        -1.19214        -3.54394
   C       -0.77816        -1.48124        -1.06016
   C       -0.50711        -0.25748        -1.51930
   C       -1.96110        -1.75358        -0.18095
   O       -2.79410        -0.95099         0.16343
   C       -3.42953        -6.15732         1.85322
   F       -2.77598        -7.24868         2.37215
   F       -3.88878        -5.49027         2.95193
   F       -4.30582        -5.21098        -1.20508
   C       -4.60106        -6.63358         1.04424
   C       -5.85163        -6.84106         1.50008
   C       -6.71062        -7.34009         0.47415
   C       -5.95567        -7.60890        -0.73379
   S       -4.40798        -7.02639        -0.67146
   C       -6.65188        -8.11637        -1.96429
   C       -7.97846        -7.31310        -2.12538
   C       -8.71182        -7.76486        -0.90630
   C       -9.45970        -7.40348         0.40466
   C       -8.03052        -7.58707         0.36583
   C       -9.65103       -11.05150        -0.64037
   C       -9.39465        -9.97728         0.02547
   C       -9.84033        -8.61361        -0.41629
   C       -9.82554       -12.09801        -1.45507
   C      -10.80617       -13.09407        -1.20727
   C      -11.56388       -13.04602        -0.03331
   N      -12.18366       -12.99511         0.93452
   C      -11.08641       -14.12905        -2.09809
   N      -11.34362       -14.98634        -2.82251
   C       -8.98621       -12.12814        -2.68094
   C       -8.47777       -13.23421        -3.22067
   C       -8.89413       -10.78454        -3.31891
   O       -9.77384        -9.96386        -3.16009
   F       -7.74012        -5.97292        -2.11543
   F       -8.64014        -7.53209        -3.27613
   F       -8.95684        -9.75627        -5.94039
   C       -7.87036        -9.50728        -5.18186
   C       -7.68025       -10.44701        -4.11308
   C       -6.42535       -10.90989        -3.77564
   C       -5.33158       -10.76749        -4.65671
   N       -4.47004       -10.71205        -5.41179
   C       -6.15492       -11.53222        -2.54152
   N       -5.90446       -11.95251        -1.50276
   C       -7.19074        -8.36329        -5.49995
   C       -6.19057        -7.64618        -4.82521
   S       -5.39561        -8.15619        -3.31508
   C       -5.69564        -6.43771        -5.31973
   C       -4.69835        -5.63438        -4.73613
   C       -4.45812        -4.49373        -5.45978
   C       -5.28770        -4.36155        -6.60926
   S       -6.32153        -5.70941        -6.80619
   C       -5.01393        -3.12745        -7.20870
   C       -4.00909        -2.46213        -6.45613
   C       -3.60892        -3.31668        -5.35887
   C       -2.60601        -3.11576        -4.45606
   C       -2.18789        -4.12603        -3.56453
   N       -1.77841        -4.95091        -2.88212
   C       -1.87428        -1.91312        -4.39194
   N       -1.28803        -0.93134        -4.30496
   C       -3.66251        -1.22783        -6.98674
   C       -4.38776        -0.93043        -8.13345
   S       -5.52051        -2.20785        -8.56166
   C       -4.28751         0.22781        -8.93348
   C       -5.01037         0.52881       -10.07911
   C       -4.63944         1.75485       -10.61944
   C       -3.62590         2.39553        -9.88292
   S       -3.13204         1.49160        -8.52453
   C       -3.31823         3.62717       -10.51945
   C       -4.13457         3.76299       -11.65271
   C       -4.99259         2.59838       -11.75599
   C       -5.93411         2.33737       -12.70767
   C       -6.70790         1.15755       -12.68771
   N       -7.33423         0.19748       -12.66659
   C       -6.19680         3.22865       -13.76983
   N       -6.41186         3.94962       -14.63458
   C       -3.89056         4.96116       -12.34766
   C       -2.91465         5.69482       -11.74083
   S       -2.26708         4.95741       -10.31588
   H        0.35219        -5.58627        -0.77961
   H       -1.18247        -6.92906         0.57768
   H       -3.60079        -3.48271         1.39318
   H        0.33632        -0.02243        -2.14318
   H       -1.16902         0.55086        -1.25123
   H       -6.17256        -6.63692         2.50604
   H       -6.96449        -9.15979        -1.81691
   H      -10.05516        -6.57999         0.74467
   H       -8.72184        -9.98351         0.87666
   H      -10.76632        -8.59732        -0.98073
   H       -8.59308       -14.20042        -2.75992
   H       -7.94180       -13.21558        -4.15511
   H       -7.58864        -7.86004        -6.37545
   H       -4.20546        -5.89407        -3.81748
   H       -2.92446        -0.56184        -6.57610
   H       -5.76212        -0.12726       -10.48019
   H       -4.40008         5.26923       -13.24218
   H       -2.52510         6.64487       -12.04800
*
