87
 SCF done       -179.171034576944          0.000931337343
C           1.07715686573868    4.74474989521096    4.01530317479195
C           1.24570134694373    5.76432498383818    4.91703340853488
C           2.45743181503972    6.03118164298145    5.58985218547760
N           3.40585032671416    6.30874388203018    6.17419997626948
C           0.28031238445955    6.72151519959954    5.29548224488879
N          -0.42757086175643    7.55216342000329    5.65543220248718
C           2.12797675524194    3.82736643256544    3.59299097635897
C           1.61979832512235    3.00509104992505    2.55838290284754
C           2.37582098278427    2.04111198857141    1.93580524976728
C           3.69814054340812    1.87605130075221    2.35740515981115
C           4.19635494844061    2.69631419182549    3.39812191084837
C           3.43204836407893    3.67291116866598    4.02542541550756
S           5.85038117804122    2.31539768686185    3.76080947864145
C           5.86130760566843    1.09013362450995    2.53980902140995
C           4.68492485970983    0.96411846050015    1.88772286969475
C           0.21378460811871    3.35383678889275    2.29359376858571
O          -0.48948342176147    2.83967530261950    1.44691928479836
C          -0.12919082941301    4.41834624416688    3.26651313796018
C          -1.34918204633639    4.98284331877950    3.52226326952500
C          -2.60517099576287    4.82874583294169    2.90256252969867
C          -3.02816910385954    4.11853641719183    1.79029520411490
C          -4.38051938477284    4.30174237235363    1.53905688735475
C          -5.02531449532204    5.15649489515400    2.45237890462297
S          -3.93361803173425    5.74017615702137    3.63914969499102
C          -6.37950843798328    5.31799157895160    2.15415309222307
C          -6.76726624241769    4.59448089206501    1.01909569296071
S          -5.45787046024174    3.69724915664922    0.30812716427247
C          -8.11593965747587    4.74658257843319    0.69111681903090
C          -8.76730147659991    5.58304397864214    1.57082773057352
S          -7.70529139622332    6.19404468867649    2.82721250603071
C         -10.13144217373119    5.97861008336562    1.54604716373129
C         -10.78121932569671    6.79910896754335    2.44042500288087
C         -12.12140950724150    6.98625461381901    2.09663351979673
C         -12.50549956480289    6.30963042159576    0.93341691121741
S         -11.18941622518529    5.42267033793958    0.25824294781325
C         -13.84822977401806    6.53167902426164    0.61113494300424
C         -14.48070860211903    7.37491659429340    1.53142545379482
S         -13.42094520799937    7.89904036730606    2.80819901999245
C         -15.82044408373147    7.63040016605718    1.23263262364317
C         -16.22193533855750    6.98772009110984    0.08331010617877
S         -14.92930520119480    6.04513070882554   -0.64208753966403
C         -17.50323904493753    7.03624346200615   -0.52835502548210
C         -17.91002436109166    6.41628512161343   -1.68894579920738
C         -19.24014403409690    6.71051322561847   -1.99693056373766
C         -19.85779299939987    7.55798354224370   -1.06887674658308
S         -18.77894883946566    7.99502498223212    0.20349208276644
C         -21.17943305792904    7.84699903613378   -1.41189046268725
C         -21.57071267707227    7.21511704769008   -2.60132559005895
S         -20.29608819218889    6.25716118936218   -3.30246636611738
C         -22.88795518405700    7.47827323789889   -2.96459219535151
C         -23.50984136189691    8.34591128114957   -2.08626244408951
S         -22.45344312492047    8.79087768629108   -0.74883279945691
C         -24.86052668155570    8.76616204974961   -2.15702954907774
C         -25.46845748244618    9.81138579476739   -1.53730301133376
C         -24.94411710986603   10.97862612478282   -0.85791318133981
C         -23.80419594428859   11.65892339174351   -1.19759622030168
C         -23.38555094833445   12.84944860412960   -0.57116880907398
N         -22.99789731891157   13.81225536159454   -0.08064177910728
C         -22.98554842595325   11.28888974633534   -2.28490162070036
N         -22.33011343340777   11.04263909529726   -3.19453895592042
C         -25.99265771716890   11.46948717886108    0.02678213484877
C         -27.20281893658218   10.79893915468488   -0.29199101957748
C         -26.94675068358671    9.80208810711806   -1.34854324789964
O         -27.74352387199291    9.08491718951186   -1.90888435640502
C         -28.38799024001701   11.08468549887534    0.34241212802401
C         -28.37547768424737   12.06289331437607    1.34164614370282
C         -27.15875761882761   12.71307425163311    1.66161556961283
C         -25.96081019735445   12.43413178641670    1.01400076467432
S         -27.38068527090118   13.87176228320964    2.93374956102653
C         -29.06586164115950   13.49022044272003    3.02064815358677
C         -29.45167816688372   12.53847795669612    2.14325446875479
H           1.95696286466482    1.43440837180706    1.14788032208579
H           3.85947678567721    4.26808378327590    4.81464749554214
H           6.76329669297629    0.53076073829157    2.38413257798225
H           4.50607868105594    0.25551300736140    1.09930939711094
H          -1.38249193046286    5.67621663623679    4.35463478283819
H          -2.36952365961718    3.50190958180633    1.20698560945386
H          -8.60080576638573    4.27573991038470   -0.14427743808401
H         -10.30107272617613    7.23829262034702    3.29562000662417
H         -16.47005525852741    8.25557290698100    1.81732864976548
H         -17.26813066208893    5.78860443873813   -2.27941818525187
H         -23.36868507845487    7.08947780534741   -3.84331518749107
H         -25.52067992670850    8.11395758548827   -2.72140047993048
H         -29.29758965951831   10.56963714231528    0.07486289997600
H         -25.05502111022961   12.94817496567696    1.29139634493195
H         -29.67210688178733   14.01090423983843    3.73619593785279
H         -30.45914917746430   12.17410261489110    2.05442398671696
