# ORCA input file
# SCF done       -179.171034576944          0.000931337343
! CAM-B3LYP def2-SVP def2/J RIJCOSX Grid4 TightSCF
%maxcore 5000
%tddft
    Mode sTDDFT
    Ethresh 5.0
    maxcore 5000
end

%pal
  nprocs 6
  end
* xyz 0 1
   C        1.07716         4.74475         4.01530
   C        1.24570         5.76432         4.91703
   C        2.45743         6.03118         5.58985
   N        3.40585         6.30874         6.17420
   C        0.28031         6.72152         5.29548
   N       -0.42757         7.55216         5.65543
   C        2.12798         3.82737         3.59299
   C        1.61980         3.00509         2.55838
   C        2.37582         2.04111         1.93581
   C        3.69814         1.87605         2.35741
   C        4.19635         2.69631         3.39812
   C        3.43205         3.67291         4.02543
   S        5.85038         2.31540         3.76081
   C        5.86131         1.09013         2.53981
   C        4.68492         0.96412         1.88772
   C        0.21378         3.35384         2.29359
   O       -0.48948         2.83968         1.44692
   C       -0.12919         4.41835         3.26651
   C       -1.34918         4.98284         3.52226
   C       -2.60517         4.82875         2.90256
   C       -3.02817         4.11854         1.79030
   C       -4.38052         4.30174         1.53906
   C       -5.02531         5.15649         2.45238
   S       -3.93362         5.74018         3.63915
   C       -6.37951         5.31799         2.15415
   C       -6.76727         4.59448         1.01910
   S       -5.45787         3.69725         0.30813
   C       -8.11594         4.74658         0.69112
   C       -8.76730         5.58304         1.57083
   S       -7.70529         6.19404         2.82721
   C      -10.13144         5.97861         1.54605
   C      -10.78122         6.79911         2.44043
   C      -12.12141         6.98625         2.09663
   C      -12.50550         6.30963         0.93342
   S      -11.18942         5.42267         0.25824
   C      -13.84823         6.53168         0.61113
   C      -14.48071         7.37492         1.53143
   S      -13.42095         7.89904         2.80820
   C      -15.82044         7.63040         1.23263
   C      -16.22194         6.98772         0.08331
   S      -14.92931         6.04513        -0.64209
   C      -17.50324         7.03624        -0.52836
   C      -17.91002         6.41629        -1.68895
   C      -19.24014         6.71051        -1.99693
   C      -19.85779         7.55798        -1.06888
   S      -18.77895         7.99502         0.20349
   C      -21.17943         7.84700        -1.41189
   C      -21.57071         7.21512        -2.60133
   S      -20.29609         6.25716        -3.30247
   C      -22.88796         7.47827        -2.96459
   C      -23.50984         8.34591        -2.08626
   S      -22.45344         8.79088        -0.74883
   C      -24.86053         8.76616        -2.15703
   C      -25.46846         9.81139        -1.53730
   C      -24.94412        10.97863        -0.85791
   C      -23.80420        11.65892        -1.19760
   C      -23.38555        12.84945        -0.57117
   N      -22.99790        13.81226        -0.08064
   C      -22.98555        11.28889        -2.28490
   N      -22.33011        11.04264        -3.19454
   C      -25.99266        11.46949         0.02678
   C      -27.20282        10.79894        -0.29199
   C      -26.94675         9.80209        -1.34854
   O      -27.74352         9.08492        -1.90888
   C      -28.38799        11.08469         0.34241
   C      -28.37548        12.06289         1.34165
   C      -27.15876        12.71307         1.66162
   C      -25.96081        12.43413         1.01400
   S      -27.38069        13.87176         2.93375
   C      -29.06586        13.49022         3.02065
   C      -29.45168        12.53848         2.14325
   H        1.95696         1.43441         1.14788
   H        3.85948         4.26808         4.81465
   H        6.76330         0.53076         2.38413
   H        4.50608         0.25551         1.09931
   H       -1.38249         5.67622         4.35463
   H       -2.36952         3.50191         1.20699
   H       -8.60081         4.27574        -0.14428
   H      -10.30107         7.23829         3.29562
   H      -16.47006         8.25557         1.81733
   H      -17.26813         5.78860        -2.27942
   H      -23.36869         7.08948        -3.84332
   H      -25.52068         8.11396        -2.72140
   H      -29.29759        10.56964         0.07486
   H      -25.05502        12.94817         1.29140
   H      -29.67211        14.01090         3.73620
   H      -30.45915        12.17410         2.05442
*
