# ORCA input file
# SCF done       -281.365324542185          0.000947220108
! CAM-B3LYP def2-SVP def2/J RIJCOSX Grid4 TightSCF
%maxcore 5000
%tddft
    Mode sTDDFT
    Ethresh 5.0
    maxcore 5000
end

%pal
  nprocs 6
  end
* xyz 0 1
   C       -6.25603         0.27266         6.72875
   C       -7.00698        -0.85816         6.53477
   C       -6.86903        -2.03649         7.29773
   N       -6.80740        -3.02496         7.87906
   C       -8.04453        -1.01343         5.59094
   N       -8.91702        -1.22597         4.87463
   C       -5.26334         0.44965         7.78060
   C       -4.81742         1.79329         7.75580
   C       -3.88394         2.28176         8.63779
   C       -3.36293         1.40175         9.59063
   C       -3.80885         0.05860         9.60402
   C       -4.75372        -0.43512         8.71225
   S       -3.02761        -0.84985        10.85994
   C       -2.13272         0.54784        11.34795
   C       -2.39929         1.64687        10.60925
   C       -5.49945         2.52325         6.67245
   O       -5.33016         3.69480         6.39978
   C       -6.35944         1.52430         5.99427
   C       -7.02084         1.65214         4.80375
   C       -7.26679         2.79355         4.01032
   C       -7.16957         4.13697         4.28423
   C       -7.53392         4.96683         3.20854
   C       -7.54697         6.38245         3.17910
   C       -7.05744         7.15834         4.29566
   C       -5.98421         6.90300         5.10627
   C       -5.79013         7.88343         6.09723
   C       -6.70947         8.88688         6.05872
   S       -7.83993         8.64523         4.76785
   C       -6.82198        10.07532         6.94378
   C       -8.03075         6.96571         2.01508
   C       -8.47023         6.22091         0.89102
   C       -8.46046         4.81126         0.92101
   C       -7.97068         4.22158         2.08015
   S       -7.87419         2.51353         2.38006
   C       -8.96345         4.03477        -0.19355
   C      -10.08696         4.26120        -0.93816
   C      -10.29307         3.29594        -1.94355
   C       -9.33048         2.33497        -1.97776
   S       -8.14090         2.60112        -0.74502
   C       -9.21503         1.17153        -2.89485
   C       -8.83112         7.06084        -0.18858
   C       -8.69735         8.39148         0.08325
   S       -8.11213         8.68084         1.70590
   C       -8.97442         9.49086        -0.77837
   C       -8.80103        10.81633        -0.51134
   C       -9.16718        11.66791        -1.58150
   C       -9.12278        13.07567        -1.62223
   C       -8.73900        13.88039        -0.48085
   C       -8.00861        15.03578        -0.47035
   C       -7.87004        15.59937         0.81331
   C       -8.50265        14.89250         1.78846
   S       -9.28009        13.49020         1.13139
   C       -8.58421        15.18466         3.24335
   C       -9.49902        13.66745        -2.82400
   C       -9.95421        12.93495        -3.94784
   C      -10.02916        11.52789        -3.89609
   C       -9.60889        10.93424        -2.71039
   S       -9.59796         9.21949        -2.39211
   C      -10.53085        10.73132        -4.99716
   C      -10.07997         9.51740        -5.43393
   C      -10.82694         8.99347        -6.50779
   C      -11.86016         9.79023        -6.89165
   S      -11.92282        11.22793        -5.92518
   C      -12.85227         9.56948        -7.97589
   C      -10.28022        13.78460        -5.03216
   C      -10.11465        15.11151        -4.75982
   S       -9.52503        15.38121        -3.13633
   C      -10.36008        16.21103        -5.63624
   C      -10.99518        16.18271        -6.84515
   C      -11.08367        17.44899        -7.46899
   C      -11.70577        17.76879        -8.69330
   C      -12.39774        16.77017        -9.48327
   C      -13.24488        15.78303        -9.06560
   C      -13.73307        14.98496       -10.12004
   C      -13.25783        15.35042       -11.34180
   S      -12.19379        16.71259       -11.21545
   C      -13.53229        14.73974       -12.66814
   C      -11.60085        19.08945        -9.10544
   C      -10.92613        20.09648        -8.36952
   C      -10.34306        19.78584        -7.12169
   C      -10.44073        18.45987        -6.71179
   S       -9.81863        17.81837        -5.21534
   C       -9.68984        20.77764        -6.29557
   C       -8.56901        20.62988        -5.52591
   C       -8.22890        21.78950        -4.80347
   C       -9.08996        22.82515        -4.99937
   S      -10.34570        22.38367        -6.10846
   C       -9.05654        24.18519        -4.40224
   C      -10.92225        21.32907        -9.05741
   C      -11.56640        21.29626       -10.26738
   S      -12.27994        19.72433       -10.57369
   C      -11.72672        22.39210       -11.15493
   C      -12.09867        22.37647       -12.46095
   C      -12.22287        21.29003       -13.41336
   C      -11.40965        20.18965       -13.48349
   C      -11.56187        19.15752       -14.42865
   N      -11.67302        18.27636       -15.15624
   C      -10.27653        20.02729       -12.65672
   N       -9.30512        19.91400       -12.05607
   C      -13.16357        21.72312       -14.43776
   C      -13.39671        23.11431       -14.27666
   C      -12.66807        23.60049       -13.08866
   O      -12.59256        24.73416       -12.67312
   C      -14.20121        23.82658       -15.13333
   C      -14.81098        23.13541       -16.18481
   C      -14.58198        21.74562       -16.32651
   C      -13.75989        21.02445       -15.46860
   S      -15.44622        21.10239       -17.68727
   C      -16.08811        22.66745       -18.05128
   C      -15.68132        23.63097       -17.19705
   H       -3.56791         3.31252         8.59317
   H       -5.05609        -1.46764         8.76147
   H       -1.45100         0.45765        12.17124
   H       -1.93800         2.60500        10.76709
   H       -7.40412         0.73805         4.36480
   H       -6.87450         4.50844         5.24567
   H       -5.33003         6.05984         4.98113
   H       -4.99256         7.84178         6.81746
   H       -6.05973        10.03584         7.71815
   H       -7.80329        10.11226         7.41579
   H       -6.69413        10.99380         6.37100
   H      -10.76981         5.06883        -0.74327
   H      -11.13189         3.31437        -2.61675
   H      -10.04523         1.16816        -3.59710
   H       -9.22534         0.23806        -2.33283
   H       -8.28054         1.21238        -3.45403
   H       -9.15180         6.69876        -1.14844
   H       -8.40838        11.16075         0.42789
   H       -7.55010        15.45302        -1.34843
   H       -7.31861        16.50287         1.00438
   H       -7.99077        16.06483         3.47907
   H       -8.21503        14.34183         3.82689
   H       -9.61667        15.36793         3.54136
   H       -9.21427         9.02823        -5.02590
   H      -10.60173         8.05352        -6.97967
   H      -12.65644         8.62093        -8.46999
   H      -12.79866        10.36876        -8.71506
   H      -13.86544         9.55484        -7.57451
   H      -10.60363        13.42785        -5.99141
   H      -11.38323        15.28220        -7.28223
   H      -13.54642        15.65925        -8.04057
   H      -14.41872        14.16886        -9.97380
   H      -14.32379        13.99886       -12.58254
   H      -12.63770        14.25395       -13.05843
   H      -13.83165        15.50128       -13.38661
   H       -7.98011        19.73110        -5.50744
   H       -7.37131        21.85188        -4.15745
   H       -9.94619        24.36176        -3.79761
   H       -9.02731        24.94758        -5.18013
   H       -8.17740        24.29175        -3.77137
   H      -10.41864        22.21084        -8.70547
   H      -11.61679        23.37594       -10.70936
   H      -14.35422        24.88594       -14.99705
   H      -13.61354        19.96592       -15.60881
   H      -16.74149        22.76876       -18.89593
   H      -15.97813        24.66185       -17.26651
*
