156
 SCF done       -281.365324542185          0.000947220108
C          -6.25603102238951    0.27266140744959    6.72874697164567
C          -7.00698250850023   -0.85815955825180    6.53477133318341
C          -6.86902938382350   -2.03648831588210    7.29772883211163
N          -6.80740338421370   -3.02495759231597    7.87906473591031
C          -8.04453264932598   -1.01342834243790    5.59094325031050
N          -8.91702477050791   -1.22597139535491    4.87462617493641
C          -5.26334050014510    0.44965290762190    7.78060113778115
C          -4.81742409294305    1.79329241815419    7.75580320280467
C          -3.88393952361489    2.28175637232202    8.63778897662270
C          -3.36293497569338    1.40174524296014    9.59063045634140
C          -3.80884548519085    0.05860265733354    9.60402216951355
C          -4.75371992543700   -0.43512127538075    8.71225309964390
S          -3.02760649990414   -0.84984929084135   10.85993924050553
C          -2.13271527554181    0.54784142947338   11.34794883013120
C          -2.39928724082052    1.64686589133097   10.60925215199080
C          -5.49945053357400    2.52325377022294    6.67245378921774
O          -5.33016386431680    3.69480163739868    6.39977768925558
C          -6.35943527739265    1.52430072185714    5.99426893693261
C          -7.02083793844110    1.65213779661640    4.80375173500166
C          -7.26678973397049    2.79355475179977    4.01032399204544
C          -7.16956747814781    4.13697354119112    4.28423444649665
C          -7.53391939904501    4.96683380366170    3.20853652992120
C          -7.54696740060687    6.38245135555905    3.17910145292351
C          -7.05744441383065    7.15833984250146    4.29565653855947
C          -5.98420635079526    6.90300397488937    5.10626909430176
C          -5.79013025627578    7.88342706625378    6.09723238726682
C          -6.70946934499571    8.88687756622466    6.05872154714189
S          -7.83993372012375    8.64523386006677    4.76784945192380
C          -6.82198114485450   10.07532351275755    6.94377994321423
C          -8.03075013270230    6.96571197871165    2.01507593177126
C          -8.47023199946169    6.22090862227652    0.89101671694890
C          -8.46045710317063    4.81126104651700    0.92101315704538
C          -7.97068165878581    4.22157591427917    2.08014878930576
S          -7.87418625727377    2.51353247066300    2.38006368895433
C          -8.96344525979474    4.03477272323384   -0.19354676286106
C         -10.08695714052964    4.26120104359227   -0.93815884584736
C         -10.29307163860546    3.29594330975781   -1.94354767414120
C          -9.33047763455322    2.33496562789557   -1.97776223082992
S          -8.14090209369922    2.60111930273309   -0.74502284498804
C          -9.21502929221986    1.17153424558210   -2.89484969644371
C          -8.83112168076935    7.06084299764083   -0.18858258274767
C          -8.69735260123513    8.39147985189357    0.08325035321739
S          -8.11213091871266    8.68084309227869    1.70590447251277
C          -8.97441734697019    9.49086415975236   -0.77836855556519
C          -8.80103376797497   10.81632829867114   -0.51134181567108
C          -9.16718092393902   11.66790564306531   -1.58149833595022
C          -9.12277926031066   13.07566651580624   -1.62222721826423
C          -8.73899902962269   13.88038647460322   -0.48085311553009
C          -8.00861265924121   15.03578046081409   -0.47034846118533
C          -7.87004240255487   15.59936899968236    0.81330960711570
C          -8.50264538838312   14.89249775407792    1.78845774535900
S          -9.28008838317447   13.49019696202210    1.13139013367673
C          -8.58420807759676   15.18466324413092    3.24335288961274
C          -9.49902004842006   13.66744666469958   -2.82399709713375
C          -9.95421075261108   12.93494930537694   -3.94783916613398
C         -10.02915938454143   11.52788527307816   -3.89608765131336
C          -9.60888772847478   10.93423564307342   -2.71039104269796
S          -9.59795915036310    9.21949117374132   -2.39211205596914
C         -10.53084902781947   10.73131664293205   -4.99716379117732
C         -10.07997401457168    9.51740077198104   -5.43392836327132
C         -10.82693523826348    8.99346615466421   -6.50779239912803
C         -11.86016259098176    9.79023186733769   -6.89164856141027
S         -11.92282274055081   11.22792916962605   -5.92517878660207
C         -12.85227007441052    9.56948452088560   -7.97589281093791
C         -10.28022428689463   13.78460074165214   -5.03215715840028
C         -10.11465079199055   15.11150896687003   -4.75982311986577
S          -9.52503318365535   15.38120560991752   -3.13633121909355
C         -10.36007919243992   16.21103072190702   -5.63623628728638
C         -10.99518139675554   16.18271297149706   -6.84514884081060
C         -11.08367381997696   17.44899092736631   -7.46898811889065
C         -11.70576915960520   17.76879497512560   -8.69330160864401
C         -12.39774177693405   16.77016532129204   -9.48327058829937
C         -13.24487756974895   15.78302593941313   -9.06559921784114
C         -13.73306730768023   14.98496049366779  -10.12003710273559
C         -13.25782857885775   15.35042050421849  -11.34180339800035
S         -12.19379399515183   16.71259354014997  -11.21544728566115
C         -13.53228558035137   14.73974051966861  -12.66813622672354
C         -11.60085303749507   19.08944679731401   -9.10543501441932
C         -10.92612964352259   20.09647960995752   -8.36951593171392
C         -10.34305584213672   19.78584085577778   -7.12168519786030
C         -10.44072725165295   18.45986891302764   -6.71178854849091
S          -9.81862821253025   17.81836867761389   -5.21533836594953
C          -9.68983891660939   20.77764171267988   -6.29557295514081
C          -8.56901461451035   20.62988461056637   -5.52590618556156
C          -8.22889670618278   21.78949787232564   -4.80346741409895
C          -9.08996252471843   22.82515386004554   -4.99936577677011
S         -10.34569523479878   22.38366504767423   -6.10845781356333
C          -9.05654025823968   24.18519366046348   -4.40223549140129
C         -10.92224987186117   21.32906826530584   -9.05740636810343
C         -11.56640287491468   21.29625573299941  -10.26738335399469
S         -12.27994207817334   19.72432909005893  -10.57368928174563
C         -11.72671688496594   22.39209578203355  -11.15492926169924
C         -12.09866784746175   22.37647447192228  -12.46094943620097
C         -12.22287279239989   21.29003374548914  -13.41336041665703
C         -11.40964785513241   20.18965258470160  -13.48349121868173
C         -11.56187010149933   19.15752315808860  -14.42865292172814
N         -11.67301755789821   18.27636472323555  -15.15623868977312
C         -10.27652816822694   20.02729211594215  -12.65671864643765
N          -9.30512261736289   19.91399737288899  -12.05606913681696
C         -13.16356965650668   21.72312342528222  -14.43775844568905
C         -13.39671195097397   23.11430703288210  -14.27665903971302
C         -12.66807142671084   23.60049018150335  -13.08866315626271
O         -12.59255530954822   24.73416290339370  -12.67311936616332
C         -14.20121114404260   23.82658061141832  -15.13332797827141
C         -14.81098452438674   23.13540801703472  -16.18480750623140
C         -14.58198155174265   21.74561772892184  -16.32651359215541
C         -13.75989281329041   21.02444865884145  -15.46860352128491
S         -15.44622034806591   21.10239333261664  -17.68726843403882
C         -16.08811085718081   22.66744663587339  -18.05127531855591
C         -15.68132398160001   23.63096941858666  -17.19704504689039
H          -3.56790740682894    3.31252480796353    8.59317464753188
H          -5.05609219757352   -1.46764128300979    8.76146834875272
H          -1.45100077249724    0.45764789259744   12.17123799602072
H          -1.93800019448314    2.60500454161574   10.76708867707311
H          -7.40412152647151    0.73805029588778    4.36480477287950
H          -6.87450386726547    4.50843855864526    5.24566834248313
H          -5.33003009859434    6.05984405191747    4.98113092826593
H          -4.99256009897249    7.84178230415503    6.81746298532156
H          -6.05973025367829   10.03584102127300    7.71814894984368
H          -7.80328505179589   10.11225635872606    7.41578514964523
H          -6.69413356399541   10.99380203317134    6.37100303763690
H         -10.76980762979055    5.06883172592860   -0.74326828878020
H         -11.13189087133598    3.31436948164618   -2.61675151997598
H         -10.04523279696305    1.16815941142812   -3.59710040632217
H          -9.22534231206738    0.23805740075139   -2.33282635118930
H          -8.28053942894420    1.21237988376568   -3.45402578374613
H          -9.15179878605834    6.69875905084213   -1.14844131330393
H          -8.40837925931538   11.16074963553175    0.42789061722701
H          -7.55010130947707   15.45301628590367   -1.34843053524005
H          -7.31860820445438   16.50287289942473    1.00437584426274
H          -7.99077417097790   16.06482781665194    3.47907217695459
H          -8.21502606525176   14.34183346333479    3.82689155317723
H          -9.61666674886014   15.36793292654391    3.54135598983696
H          -9.21426705807610    9.02823184729299   -5.02589908619181
H         -10.60173184707478    8.05352428475278   -6.97966746787893
H         -12.65644233600819    8.62093492211976   -8.46999157364875
H         -12.79866141924143   10.36876478763866   -8.71505502042747
H         -13.86543741124932    9.55484094753011   -7.57451086866833
H         -10.60363395276283   13.42785082216213   -5.99140565051721
H         -11.38322603225533   15.28219878462579   -7.28223047443428
H         -13.54642458971530   15.65924538596377   -8.04056818664201
H         -14.41872151997119   14.16886219985778   -9.97379555885992
H         -14.32378535382822   13.99885710433657  -12.58254166108247
H         -12.63770357767629   14.25395442286124  -13.05842888165129
H         -13.83164712928217   15.50127729358241  -13.38661299862931
H          -7.98010656811099   19.73109525054539   -5.50743624823628
H          -7.37131359341915   21.85187959116739   -4.15744601221121
H          -9.94619076793804   24.36175564206236   -3.79760640701997
H          -9.02730838874849   24.94757949785396   -5.18013214853611
H          -8.17740363005988   24.29175205688118   -3.77137476332779
H         -10.41863925973764   22.21084072134695   -8.70546753105004
H         -11.61678521237784   23.37593998995409  -10.70936070517086
H         -14.35422471723389   24.88593796055098  -14.99705085632803
H         -13.61354441646137   19.96591851533537  -15.60880825854137
H         -16.74149468851022   22.76876334168602  -18.89593334229289
H         -15.97812532156669   24.66185254158759  -17.26651483011851
