# ORCA input file
# SCF done       -212.349410996702          0.000848512159
! CAM-B3LYP def2-SVP def2/J RIJCOSX Grid4 TightSCF
%maxcore 5000
%tddft
    Mode sTDDFT
    Ethresh 5.0
    maxcore 5000
end

%pal
  nprocs 6
  end
* xyz 0 1
   C        0.65349         2.68750         3.52058
   C        1.43191         3.02299         2.44312
   C        2.83449         2.87827         2.40744
   N        3.97574         2.78968         2.32186
   C        0.93912         3.50865         1.21362
   N        0.60480         3.88496         0.18127
   C        1.12282         2.07862         4.75632
   C       -0.00335         1.71081         5.53479
   C        0.11235         1.10820         6.76443
   C        1.39936         0.86003         7.25057
   C        2.51855         1.23559         6.46810
   C        2.40197         1.84191         5.22290
   S        4.00604         0.84424         7.27075
   C        3.13681         0.19228         8.61642
   C        1.79456         0.26177         8.47998
   C       -1.24071         2.08662         4.82929
   O       -2.37348         1.91902         5.22716
   C       -0.79444         2.77889         3.59193
   C       -1.56266         3.56203         2.77881
   C       -2.96990         3.64021         2.70166
   C       -3.95895         2.73767         3.06667
   C       -5.23095         3.20200         2.75494
   C       -5.22235         4.48057         2.15566
   S       -3.64879         5.08318         1.93816
   C       -6.56039         4.87110         1.91033
   C       -7.41609         3.83881         2.33302
   C       -6.60833         2.75351         2.87272
   C       -7.05766         1.56641         3.36969
   C       -6.19221         0.55215         3.83513
   N       -5.51185        -0.29650         4.19623
   C       -8.43424         1.26166         3.43505
   N       -9.55320         1.01750         3.48974
   C       -8.76249         4.13081         2.12226
   C       -8.93700         5.38232         1.55757
   S       -7.41307         6.20708         1.27136
   C      -10.15865         6.01500         1.21523
   C      -10.33977         7.32183         0.79984
   C      -11.68147         7.60945         0.55533
   C      -12.52610         6.50694         0.77263
   S      -11.67195         5.12377         1.29631
   C      -13.85861         6.89699         0.48843
   C      -13.86008         8.25065         0.10811
   C      -12.49083         8.74240         0.13370
   C      -12.05407         9.99620        -0.17475
   C      -10.68860        10.34756        -0.11254
   N       -9.57913        10.63118        -0.05920
   C      -12.93564        11.02291        -0.57615
   N      -13.65130        11.85531        -0.90554
   C      -15.13345         8.73118        -0.19367
   C      -16.10042         7.74902        -0.06098
   S      -15.42172         6.21289         0.45605
   C      -17.49285         7.87498        -0.30689
   C      -18.20359         9.04545        -0.51980
   C      -19.55433         8.79658        -0.75346
   C      -19.87357         7.42783        -0.72918
   S      -18.51356         6.45000        -0.39758
   C      -21.25166         7.27950        -1.01440
   C      -21.81356         8.55791        -1.19945
   C      -20.76800         9.55276        -1.03354
   C      -20.89462        10.90755        -1.11154
   C      -19.79867        11.77588        -0.91833
   N      -18.91205        12.48317        -0.75201
   C      -22.13291        11.53396        -1.37030
   N      -23.13850        12.04716        -1.56817
   C      -23.17325         8.51055        -1.49300
   C      -23.64557         7.21218        -1.58674
   S      -22.38706         6.03021        -1.22722
   C      -24.98199         6.83186        -1.86246
   C      -25.45822         5.65519        -2.34606
   C      -24.81393         4.53134        -2.99523
   C      -23.71500         4.59413        -3.81250
   C      -23.18589         3.48613        -4.50431
   N      -22.70637         2.61369        -5.07556
   C      -23.04897         5.79623        -4.12664
   N      -22.50429         6.75850        -4.43634
   C      -25.71387         3.39134        -2.87911
   C      -26.97095         3.85218        -2.40657
   C      -26.89249         5.29962        -2.13946
   O      -27.77436         6.04344        -1.77834
   C      -28.04672         3.01239        -2.24479
   C      -27.87189         1.65947        -2.55175
   C      -26.60872         1.20863        -3.00735
   C      -25.52169         2.05740        -3.17998
   S      -26.62349        -0.49872        -3.31342
   C      -28.28653        -0.59258        -2.84796
   C      -28.81285         0.59424        -2.47467
   H       -0.76464         0.83809         7.33191
   H        3.28331         2.11574         4.66713
   H        3.69454        -0.20751         9.44091
   H        1.09507        -0.09259         9.21524
   H       -1.04489         4.24976         2.11967
   H       -3.74502         1.79253         3.52879
   H       -9.58513         3.48356         2.36828
   H       -9.52615         8.01666         0.69315
   H      -15.35289         9.73415        -0.50939
   H      -17.75248        10.01998        -0.49654
   H      -23.79822         9.36610        -1.67494
   H      -25.73928         7.56122        -1.58912
   H      -28.99537         3.38914        -1.89528
   H      -24.57586         1.67176        -3.52366
   H      -28.77458        -1.54720        -2.88197
   H      -29.82992         0.72763        -2.15344
*
