# ORCA input file
# SCF done       -224.923008008338          0.000239753416
! CAM-B3LYP def2-SVP def2/J RIJCOSX Grid4 TightSCF
%maxcore 5000
%tddft
    Mode sTDDFT
    Ethresh 5.0
    maxcore 5000
end

%pal
  nprocs 6
  end
* xyz 0 1
   C        0.48512         3.00521         2.15096
   C       -0.52673         3.92481         2.16111
   F       -1.40234         3.93464         3.18150
   C       -0.69319         4.87102         1.14036
   C        0.18802         4.87851         0.09528
   C        1.25101         3.95400         0.03499
   C        1.40062         2.99658         1.08088
   C        2.45213         2.05112         1.03695
   C        3.32497         2.06898        -0.01665
   C        3.18590         3.04463        -1.04571
   C        2.17462         3.96171        -1.03380
   C        4.28162         2.88498        -2.01702
   O        4.46701         3.49401        -3.04522
   C        5.17265         1.83772        -1.43551
   C        4.46526         1.21324        -0.33863
   C        4.64671        -0.05737         0.14356
   C        5.61232        -0.95384        -0.35178
   N        6.37500        -1.71788        -0.74338
   C        3.82237        -0.64877         1.12432
   N        3.17917        -1.17692         1.91396
   C        6.43256         1.71634        -1.93985
   C        7.57159         1.10418        -1.37689
   C        7.81656         0.73036        -0.06243
   C        9.07912         0.17678         0.09999
   C        9.82000         0.13604        -1.09941
   S        8.96179         0.79002        -2.41300
   C       11.07534        -0.45993        -0.82720
   C       11.12573        -0.80829         0.53451
   C        9.86884        -0.42500         1.16005
   C        9.49068        -0.61184         2.45680
   C       10.33856        -1.22259         3.40449
   N       11.03635        -1.71256         4.17078
   C        8.22377        -0.19597         2.91902
   N        7.19400         0.15577         3.28008
   C       12.33175        -1.40468         0.89828
   C       13.20220        -1.50318        -0.17348
   S       12.51418        -0.85872        -1.65599
   C       14.51749        -2.03172        -0.18017
   C       15.40991        -2.03778        -1.23735
   C       16.62431        -2.62599        -0.89017
   C       16.65389        -3.07946         0.44062
   S       15.19001        -2.77262         1.26539
   C       17.92406        -3.65803         0.69187
   C       18.69868        -3.56181        -0.47786
   C       17.90793        -2.91192        -1.51080
   C       18.28949        -2.62906        -2.78876
   C       19.57188        -2.95802        -3.27731
   N       20.61372        -3.22644        -3.67322
   C       17.42618        -1.98898        -3.70334
   N       16.72454        -1.46711        -4.44465
   C       19.97429        -4.10278        -0.33135
   C       20.17521        -4.61696         0.93726
   S       18.76388        -4.42276         1.96749
   C       21.34557        -5.24672         1.43025
   C       21.53422        -5.84049         2.66636
   C       22.81512        -6.37433         2.79589
   C       23.60954        -6.17639         1.65227
   S       22.77741        -5.34150         0.41666
   C       24.88490        -6.74867         1.87823
   C       24.89166        -7.32230         3.16667
   C       23.59839        -7.09592         3.78781
   C       23.21925        -7.46176         5.04555
   C       24.10014        -8.15082         5.90628
   N       24.82652        -8.71745         6.58878
   C       21.93357        -7.17958         5.55294
   N       20.88403        -6.95232         5.95430
   C       26.11102        -7.89814         3.49617
   C       27.04772        -7.76320         2.48031
   S       26.37375        -6.93411         1.07912
   C       28.37739        -8.22874         2.41565
   C       29.19545        -8.66552         3.41393
   C       30.37613        -9.49876         3.03911
   O       30.82580        -9.64578         1.92615
   C       30.81779       -10.13169         4.29361
   C       31.77586       -11.08544         4.48415
   C       32.00214       -11.58317         5.78664
   C       31.22030       -11.08583         6.87027
   C       31.44165       -11.59751         8.16351
   C       32.40120       -12.55322         8.35201
   C       33.18249       -13.05206         7.30050
   C       32.97934       -12.56809         6.03825
   F       32.61469       -13.04285         9.58598
   C       30.24105       -10.08994         6.64483
   C       30.05038        -9.61333         5.37645
   C       29.14985        -8.58550         4.85782
   C       28.59274        -7.58470         5.61144
   C       27.92417        -6.47226         5.06660
   N       27.38987        -5.54193         4.65693
   C       28.71038        -7.50215         7.01519
   N       28.78097        -7.38575         8.15435
   H        0.58045         2.28898         2.95198
   H       -1.51085         5.57150         1.20208
   H        0.08102         5.59808        -0.70242
   H        2.54865         1.34449         1.84597
   H        2.08186         4.68632        -1.82881
   H        6.58793         2.22798        -2.88552
   H        7.11852         0.90284         0.73605
   H       12.58128        -1.74865         1.88612
   H       15.17297        -1.62606        -2.20199
   H       20.72756        -4.13280        -1.09807
   H       20.76690        -5.87783         3.41884
   H       26.30662        -8.43410         4.40671
   H       28.79921        -8.32055         1.41870
   H       32.35244       -11.45789         3.65076
   H       30.86142       -11.23410         8.99716
   H       33.92490       -13.80576         7.50983
   H       33.56808       -12.93713         5.21196
   H       29.65635        -9.73877         7.48026
*
