# ORCA input file
# SCF done       -213.511695293845          0.000970527723
! CAM-B3LYP def2-SVP def2/J RIJCOSX Grid4 TightSCF
%maxcore 5000
%tddft
    Mode sTDDFT
    Ethresh 5.0
    maxcore 5000
end

%pal
  nprocs 6
  end
* xyz 0 1
   C       -4.72761        -0.51369         7.85988
   C       -4.68067        -1.24303         9.03871
   C       -4.36437        -2.59442         9.03472
   C       -4.07597        -3.25489         7.85006
   C       -4.11857        -2.53612         6.66714
   C       -4.45119        -1.16221         6.66636
   C       -4.44266        -0.67355         5.29311
   C       -4.59285         0.62904         4.90242
   C       -4.77192         1.70665         5.79688
   N       -4.91774         2.62695         6.46662
   C       -4.55248         1.09275         3.57003
   N       -4.53171         1.53894         2.51240
   C       -4.25654        -1.84057         4.43531
   C       -3.83232        -2.93726         5.29983
   C       -3.04028        -3.99162         4.93174
   C       -2.52830        -4.17202         3.62963
   N       -2.06306        -4.33316         2.59258
   C       -2.56914        -4.97167         5.82988
   N       -2.17459        -5.80686         6.51036
   C       -4.53703        -1.87717         3.09887
   C       -4.79480        -3.00602         2.28814
   C       -4.70761        -3.03673         0.90351
   C       -5.05555        -4.27586         0.37923
   C       -5.46516        -5.19218         1.37033
   S       -5.39822        -4.53402         2.93731
   C       -5.78454        -6.42064         0.74997
   C       -5.56516        -6.29424        -0.63389
   C       -5.10947        -4.93880        -0.91261
   C       -4.79518        -4.41337        -2.13016
   C       -4.88566        -5.17448        -3.31548
   N       -4.96336        -5.79641        -4.27529
   C       -4.36819        -3.07697        -2.28918
   N       -4.02777        -1.99173        -2.42820
   C       -5.81406        -7.47305        -1.33140
   C       -6.22366        -8.49480        -0.48984
   S       -6.30996        -7.98677         1.18853
   C       -6.51805        -9.83530        -0.84055
   C       -6.94766       -10.84899        -0.00160
   C       -7.08613       -12.05938        -0.67693
   C       -6.75780       -11.96600        -2.04174
   S       -6.29393       -10.38694        -2.49500
   C       -6.88416       -13.25099        -2.62532
   C       -7.29304       -14.15745        -1.63035
   C       -7.44862       -13.43577        -0.37698
   C       -7.84917       -13.94118         0.82403
   C       -8.17328       -15.30457         0.99116
   N       -8.43671       -16.41238         1.12186
   C       -7.96653       -13.13082         1.97353
   N       -8.06544       -12.47326         2.90724
   C       -7.40518       -15.46441        -2.09987
   C       -7.08375       -15.56029        -3.44260
   S       -6.64880       -14.00540        -4.13858
   C       -7.04109       -16.73298        -4.23688
   C       -6.71880       -16.82954        -5.58022
   C       -6.73100       -18.14999        -6.02287
   C       -7.06641       -19.06625        -5.00852
   S       -7.37531       -18.29873        -3.51426
   C       -7.02921       -20.37510        -5.54616
   C       -6.66716       -20.28398        -6.90770
   C       -6.48402       -18.88522        -7.25335
   C       -6.17548       -18.37927        -8.48159
   C       -5.98849       -19.22504        -9.59572
   N       -5.83611       -19.93057       -10.48662
   C       -6.02825       -16.99444        -8.70709
   N       -5.90286       -15.86824        -8.88016
   C       -6.60275       -21.51923        -7.53416
   C       -6.91819       -22.56236        -6.67224
   S       -7.26926       -21.98211        -5.04685
   C       -6.91301       -23.95422        -6.90712
   C       -6.97290       -24.60195        -8.10957
   C       -6.52755       -25.97783        -8.31808
   C       -6.31914       -26.93786        -7.36513
   C       -6.54208       -26.78309        -5.98028
   N       -6.70314       -26.72963        -4.84458
   C       -5.88442       -28.25096        -7.64879
   N       -5.53448       -29.33257        -7.80523
   C       -6.33672       -26.14307        -9.75282
   C       -6.80729       -24.98542       -10.41312
   C       -6.71410       -24.86714       -11.78982
   C       -6.15553       -25.91529       -12.50576
   C       -5.70533       -27.05936       -11.86171
   C       -5.78899       -27.18631       -10.48308
   C       -7.35599       -24.07863        -9.41746
   C       -8.27984       -23.10044        -9.66841
   C       -8.71219       -22.74024       -10.96331
   N       -9.10731       -22.40593       -11.98695
   C       -8.98867       -22.39788        -8.67297
   N       -9.61832       -21.82018        -7.90618
   H       -4.97989         0.53353         7.88360
   H       -4.89790        -0.74865         9.97308
   H       -4.34265        -3.14126         9.96480
   H       -3.83850        -4.30644         7.85562
   H       -4.64526        -0.93300         2.58026
   H       -4.36529        -2.19356         0.33085
   H       -5.70299        -7.60305        -2.39299
   H       -7.13783       -10.69661         1.04572
   H       -7.69651       -16.31401        -1.50866
   H       -6.48511       -15.97333        -6.18743
   H       -6.29712       -21.67048        -8.55352
   H       -6.77776       -24.55959        -6.02076
   H       -7.04967       -23.97768       -12.29780
   H       -6.06862       -25.83639       -13.57845
   H       -5.27651       -27.86360       -12.43965
   H       -5.42557       -28.07852       -10.00059
*
