174
 SCF done       -300.879108185997          0.000931252794
C          -5.39020353438747    0.59611224720290   -6.33271955942756
C          -4.16039765738367    0.21517007151858   -5.86142840166849
C          -3.27574468780935   -0.63050013713826   -6.56357324598178
N          -2.51065457194136   -1.31121155425709   -7.08278632958331
C          -3.56769354257114    0.62981650353383   -4.64919980662095
N          -2.99219213715241    0.93243137745284   -3.70226249293463
C          -5.93082897835181    0.23792903147221   -7.63855994285217
C          -7.12858314473024    0.96251389367527   -7.84202664808957
C          -7.87885437716992    0.85112897484315   -8.98722719553058
C          -7.42774891023336   -0.02586957906876   -9.97908558358161
C          -6.23191144225988   -0.75171619354624   -9.76482732299805
C          -5.47109278960225   -0.63412804685168   -8.60829492733513
S          -5.86075385432256   -1.78434064755444  -11.11247530463118
C          -7.29578873656139   -1.23258968291930  -11.93500610087034
C          -8.01802070447908   -0.32330852162931  -11.23825877429811
Br         -7.70779007989350   -1.91272992658874  -13.63356013594658
C          -7.40783631192983    1.80227300690777   -6.65929099813406
O          -8.33468400395146    2.57951537142318   -6.55788528451890
C          -6.34704672461007    1.47672868414701   -5.67882404819997
C          -6.28012261822966    1.79740423058993   -4.34981091119614
C          -7.09197511620819    2.62105241632358   -3.54236271834675
C          -8.11869331870956    3.48847718311697   -3.83536394907190
C          -8.65150897057965    4.13802836059209   -2.70662718232108
C          -8.02787060051521    3.72259571144486   -1.49695554994369
S          -6.74755913389243    2.58985798157428   -1.80949869950629
C          -8.40061233928718    4.20136436101528   -0.25170314997726
C          -7.68637334147732    3.82058863856966    0.97449340794337
C          -7.20198970911065    4.80178763164882    1.83592151620903
C          -6.50440685467539    4.45209704855942    2.97534891730651
C          -6.27192339503630    3.11848795038229    3.28975113094891
C          -6.75976739287415    2.14213151725661    2.42949831529846
C          -7.45474329374641    2.48417016368465    1.28593128134624
C          -5.52994210238985    2.74133057181573    4.53475738293219
C          -9.48049642560417    5.10088690679218   -0.22309142897355
C         -10.09586118532814    5.52577761730733   -1.43074639107495
C          -9.69415897358509    5.08896113595872   -2.68021382080970
C         -10.29319726173398    5.59158634702805   -3.92099874965109
C         -11.67457095204776    5.61679675956688   -4.09168113757783
C         -12.22601493237944    6.09241539253958   -5.26520578756003
C         -11.42059453314375    6.56209069943177   -6.29554538197175
C         -10.04195127398788    6.54489274998025   -6.11770442900414
C          -9.48261755358791    6.06521273091000   -4.95082025419706
C         -12.02182876459266    7.09866308989634   -7.55763855262495
S         -11.36923386293705    6.67838380332575   -1.11515139720338
C         -11.11338167462770    6.53616371716846    0.60962082580652
C         -10.09483365568756    5.67679060258634    0.91341134096111
C         -11.93940779040781    7.25328795617229    1.52791613627090
C         -11.99543059952868    7.09510531447700    2.88319386811374
C         -12.93660510123777    7.94434011083369    3.51460033585041
C         -13.57817211005119    8.80526763824174    2.58871996149653
S         -13.04353252842608    8.48800246584276    0.95861169464608
C         -14.52917232566959    9.74391193646058    2.95733972298556
C         -15.21131635694518   10.58993327237566    1.96937897090396
C         -16.60180861634360   10.66261547488974    1.94143747018057
C         -17.24362479625489   11.44704210816764    1.00371847089028
C         -16.52104273613520   12.18171449988575    0.07084057554863
C         -15.13413045364325   12.10566331455767    0.10092291339862
C         -14.48506908464204   11.31988694022774    1.03322454736737
C         -17.22180271939308   13.05037856730955   -0.92785235237284
C         -14.82738489553030    9.82896008221559    4.32760953806523
C         -14.19779634209249    8.95560369494613    5.25034752104201
C         -13.26337859998802    8.00287258078061    4.88008213871299
C         -12.65648922258265    7.08758413827958    5.85592439022090
C         -12.67745193268478    5.71075837108194    5.64433060263292
C         -12.11379861559031    4.85217814354527    6.56638588905150
C         -11.51228355723683    5.33802184021438    7.72270873142686
C         -11.49575504419912    6.71049252146098    7.93140993382252
C         -12.06131527028693    7.57618729121213    7.01439793233400
C         -10.89219513175115    4.39362741517672    8.70609524787378
S         -14.78559011887640    9.21576515676698    6.87296557597177
C         -15.81939123442825   10.51920265834036    6.31674893950349
C         -15.72027498824652   10.72163202015282    4.97212726627612
C         -16.62649373163858   11.22966319125209    7.25276213688086
C         -16.84887757238639   10.91412261057980    8.56168712240583
C         -17.69544310363190   11.82976605991214    9.23022976710879
C         -18.14029226353614   12.86655549753226    8.36887160213555
S         -17.47201281149847   12.68461412278246    6.76559714525510
C         -18.97760379979844   13.89111727773916    8.77726147803943
C         -19.38397810422537   14.97670670145360    7.87722347457675
C         -19.92991338151042   14.70244908082362    6.62628449692771
C         -20.30329344186602   15.73200841486868    5.78549739984598
C         -20.13678619255451   17.06022562452287    6.16096099226203
C         -19.58418783380182   17.33024094995066    7.40695216522715
C         -19.21442349498343   16.30598157577156    8.25664869241103
C         -20.56391831546981   18.16974657266489    5.25074321919642
C         -19.40572637105921   13.85310063017668   10.11843316176742
C         -18.96019697330605   12.81373793723508   10.97514090972844
C         -18.11638885644438   11.79540287055917   10.57049892555278
C         -17.71938055289032   10.72147681730910   11.49144642292494
C         -18.69604926714183   10.01466295219805   12.18934383487049
C         -18.34115879689228    9.00963558103754   13.06658691341064
C         -17.00608824553954    8.68134152647149   13.27268955029835
C         -16.03485972437775    9.38765479544596   12.57332373155440
C         -16.38221866404439   10.39481670648164   11.69328964228706
C         -16.62899055281308    7.57473618876843   14.20840347126861
S         -19.59473540022381   13.00122676951378   12.58528900665515
C         -20.53566333453094   14.39905159215369   12.08637085956907
C         -20.29348354671735   14.73076101848426   10.77662501607480
C         -21.37109362809831   15.11192209707883   12.98294161443946
C         -21.88238169949956   14.70136313278503   14.17409550843459
C         -21.97007357412317   13.38971833634017   14.78258100998734
C         -22.16531167238613   12.20688598965646   14.11915450225163
C         -22.27660998600822   10.95575833840970   14.75558602190635
N         -22.34217812373434    9.90998432841329   15.22511575228654
C         -22.36871258280738   12.13165285922190   12.72415886082579
N         -22.61460029227197   12.03567685960173   11.60694322268544
C         -22.10958622990740   13.58978475202060   16.21951219256332
C         -22.36437364866952   14.96400980633346   16.46130931370262
C         -22.32080576173364   15.70321545677590   15.18155050641475
O         -22.53790441560608   16.87841425898054   14.99560520513248
C         -22.59396080976019   15.45735368753254   17.72268606274502
C         -22.55833905560567   14.55679075268832   18.79279843239335
C         -22.28967116800412   13.19012403103617   18.54033992346936
C         -22.06762162712988   12.68726633471729   17.26425667221443
S         -22.28237261542546   12.25884284085471   20.00705757162790
C         -22.64135627208294   13.69660128556221   20.92656925261156
C         -22.75806405859963   14.81763293004494   20.17660874622679
Br        -22.82366497591344   13.58118387500985   22.78959868427717
H          -8.78635084336559    1.42092996184133   -9.11196248630253
H          -4.57033247849241   -1.21286784743032   -8.49198988538173
H          -8.93003054705151    0.11954667599321  -11.59484910076481
H          -5.48255900034787    1.32190652153821   -3.79000040532754
H          -8.48723294424880    3.63562435986654   -4.83356382455830
H          -7.35135671053353    5.84418865609455    1.59330006248276
H          -6.12797357760075    5.22723442670638    3.62785163791868
H          -6.58998760058102    1.09959367495009    2.65706445930951
H          -7.83584354605431    1.70971120649876    0.63691196456659
H          -6.23292477700268    2.57831524792755    5.35282471676388
H          -4.84421170183824    3.53114468643121    4.83245279554223
H          -4.96830862455757    1.82187058089484    4.38692908688656
H         -12.31762730821956    5.23563817773779   -3.31217933183139
H         -13.30003263197703    6.09494590465460   -5.38497651941282
H          -9.39852929572543    6.91071389896184   -6.90505006060808
H          -8.41005317729991    6.07805502077780   -4.82235622411523
H         -12.18495816864332    8.17310239523525   -7.46330786669457
H         -12.98165457622545    6.62965177550398   -7.76140681644972
H         -11.35877328816377    6.93279992655697   -8.40362139903256
H          -9.79296535332239    5.45176030822992    1.91973853673173
H         -11.38525175474944    6.39346852617780    3.42162096822076
H         -17.17988491693398   10.07939753808260    2.64370870689592
H         -18.32365805391559   11.48699708310112    0.99206013038194
H         -14.55395960613919   12.66920038000227   -0.61567832285438
H         -13.40572885493048   11.28584639488176    1.04891754877819
H         -17.39594291074228   14.03958127205765   -0.50246263937650
H         -18.18647450894348   12.62813613013607   -1.20022794702353
H         -16.62137816399447   13.17122415396167   -1.82635309145195
H         -13.16080361212225    5.31503364408203    4.76259730894479
H         -12.14250097011211    3.78601365624287    6.39066302526950
H         -11.03342887282165    7.10948233653716    8.82297266029138
H         -12.02484070173471    8.64153793370090    7.18776249434342
H          -9.98953054491402    3.95129553526475    8.28412617351990
H         -11.57887361164299    3.58287136343970    8.94340200951739
H         -10.62498762593178    4.90784790825666    9.62570823817263
H         -16.26652730483650   11.49330049082216    4.45914000673337
H         -16.42793575312658   10.04129075839257    9.02815460488176
H         -20.08267435906940   13.67727277746008    6.32372406469398
H         -20.73293544801898   15.50261606819777    4.82097985430471
H         -19.43861982044173   18.35594835519461    7.71494621827103
H         -18.76425726105187   16.53384546734774    9.21231249010886
H         -20.37290214273268   17.91250410603424    4.21120028830592
H         -20.04134859319042   19.09292563482803    5.48923717152881
H         -21.63431452471372   18.34824358038011    5.35996032653653
H         -19.74005653624068   10.23914927098639   12.02412763302871
H         -19.11289273146093    8.47219516853743   13.59849979787160
H         -14.99137182009042    9.14841533823665   12.72231898910707
H         -15.61267219882470   10.94937610487407   11.17561722216570
H         -17.33304708322559    7.51104221300079   15.03476836966674
H         -15.62735488420036    7.72329357397684   14.60502241193380
H         -16.64522286669213    6.62087001030054   13.67975942310250
H         -20.78526622014784   15.55333610656905   10.28828620465593
H         -21.56179414338768   16.14911013203106   12.72458797399448
H         -22.79568794312692   16.50518372250198   17.88082984968277
H         -21.86207421222731   11.63994473215600   17.11503023303761
H         -22.97552116308503   15.78971624765210   20.58007152047977
