# ORCA input file
# SCF done       -300.879108185997          0.000931252794
! CAM-B3LYP def2-SVP def2/J RIJCOSX Grid4 TightSCF
%maxcore 5000
%tddft
    Mode sTDDFT
    Ethresh 5.0
    maxcore 5000
end

%pal
  nprocs 6
  end
* xyz 0 1
   C       -5.39020         0.59611        -6.33272
   C       -4.16040         0.21517        -5.86143
   C       -3.27574        -0.63050        -6.56357
   N       -2.51065        -1.31121        -7.08279
   C       -3.56769         0.62982        -4.64920
   N       -2.99219         0.93243        -3.70226
   C       -5.93083         0.23793        -7.63856
   C       -7.12858         0.96251        -7.84203
   C       -7.87885         0.85113        -8.98723
   C       -7.42775        -0.02587        -9.97909
   C       -6.23191        -0.75172        -9.76483
   C       -5.47109        -0.63413        -8.60829
   S       -5.86075        -1.78434       -11.11248
   C       -7.29579        -1.23259       -11.93501
   C       -8.01802        -0.32331       -11.23826
  Br       -7.70779        -1.91273       -13.63356
   C       -7.40784         1.80227        -6.65929
   O       -8.33468         2.57952        -6.55789
   C       -6.34705         1.47673        -5.67882
   C       -6.28012         1.79740        -4.34981
   C       -7.09198         2.62105        -3.54236
   C       -8.11869         3.48848        -3.83536
   C       -8.65151         4.13803        -2.70663
   C       -8.02787         3.72260        -1.49696
   S       -6.74756         2.58986        -1.80950
   C       -8.40061         4.20136        -0.25170
   C       -7.68637         3.82059         0.97449
   C       -7.20199         4.80179         1.83592
   C       -6.50441         4.45210         2.97535
   C       -6.27192         3.11849         3.28975
   C       -6.75977         2.14213         2.42950
   C       -7.45474         2.48417         1.28593
   C       -5.52994         2.74133         4.53476
   C       -9.48050         5.10089        -0.22309
   C      -10.09586         5.52578        -1.43075
   C       -9.69416         5.08896        -2.68021
   C      -10.29320         5.59159        -3.92100
   C      -11.67457         5.61680        -4.09168
   C      -12.22601         6.09242        -5.26521
   C      -11.42059         6.56209        -6.29555
   C      -10.04195         6.54489        -6.11770
   C       -9.48262         6.06521        -4.95082
   C      -12.02183         7.09866        -7.55764
   S      -11.36923         6.67838        -1.11515
   C      -11.11338         6.53616         0.60962
   C      -10.09483         5.67679         0.91341
   C      -11.93941         7.25329         1.52792
   C      -11.99543         7.09511         2.88319
   C      -12.93661         7.94434         3.51460
   C      -13.57817         8.80527         2.58872
   S      -13.04353         8.48800         0.95861
   C      -14.52917         9.74391         2.95734
   C      -15.21132        10.58993         1.96938
   C      -16.60181        10.66262         1.94144
   C      -17.24362        11.44704         1.00372
   C      -16.52104        12.18171         0.07084
   C      -15.13413        12.10566         0.10092
   C      -14.48507        11.31989         1.03322
   C      -17.22180        13.05038        -0.92785
   C      -14.82738         9.82896         4.32761
   C      -14.19780         8.95560         5.25035
   C      -13.26338         8.00287         4.88008
   C      -12.65649         7.08758         5.85592
   C      -12.67745         5.71076         5.64433
   C      -12.11380         4.85218         6.56639
   C      -11.51228         5.33802         7.72271
   C      -11.49576         6.71049         7.93141
   C      -12.06132         7.57619         7.01440
   C      -10.89220         4.39363         8.70610
   S      -14.78559         9.21577         6.87297
   C      -15.81939        10.51920         6.31675
   C      -15.72027        10.72163         4.97213
   C      -16.62649        11.22966         7.25276
   C      -16.84888        10.91412         8.56169
   C      -17.69544        11.82977         9.23023
   C      -18.14029        12.86656         8.36887
   S      -17.47201        12.68461         6.76560
   C      -18.97760        13.89112         8.77726
   C      -19.38398        14.97671         7.87722
   C      -19.92991        14.70245         6.62628
   C      -20.30329        15.73201         5.78550
   C      -20.13679        17.06023         6.16096
   C      -19.58419        17.33024         7.40695
   C      -19.21442        16.30598         8.25665
   C      -20.56392        18.16975         5.25074
   C      -19.40573        13.85310        10.11843
   C      -18.96020        12.81374        10.97514
   C      -18.11639        11.79540        10.57050
   C      -17.71938        10.72148        11.49145
   C      -18.69605        10.01466        12.18934
   C      -18.34116         9.00964        13.06659
   C      -17.00609         8.68134        13.27269
   C      -16.03486         9.38765        12.57332
   C      -16.38222        10.39482        11.69329
   C      -16.62899         7.57474        14.20840
   S      -19.59474        13.00123        12.58529
   C      -20.53566        14.39905        12.08637
   C      -20.29348        14.73076        10.77663
   C      -21.37109        15.11192        12.98294
   C      -21.88238        14.70136        14.17410
   C      -21.97007        13.38972        14.78258
   C      -22.16531        12.20689        14.11915
   C      -22.27661        10.95576        14.75559
   N      -22.34218         9.90998        15.22512
   C      -22.36871        12.13165        12.72416
   N      -22.61460        12.03568        11.60694
   C      -22.10959        13.58978        16.21951
   C      -22.36437        14.96401        16.46131
   C      -22.32081        15.70322        15.18155
   O      -22.53790        16.87841        14.99561
   C      -22.59396        15.45735        17.72269
   C      -22.55834        14.55679        18.79280
   C      -22.28967        13.19012        18.54034
   C      -22.06762        12.68727        17.26426
   S      -22.28237        12.25884        20.00706
   C      -22.64136        13.69660        20.92657
   C      -22.75806        14.81763        20.17661
  Br      -22.82366        13.58118        22.78960
   H       -8.78635         1.42093        -9.11196
   H       -4.57033        -1.21287        -8.49199
   H       -8.93003         0.11955       -11.59485
   H       -5.48256         1.32191        -3.79000
   H       -8.48723         3.63562        -4.83356
   H       -7.35136         5.84419         1.59330
   H       -6.12797         5.22723         3.62785
   H       -6.58999         1.09959         2.65706
   H       -7.83584         1.70971         0.63691
   H       -6.23292         2.57832         5.35282
   H       -4.84421         3.53114         4.83245
   H       -4.96831         1.82187         4.38693
   H      -12.31763         5.23564        -3.31218
   H      -13.30003         6.09495        -5.38498
   H       -9.39853         6.91071        -6.90505
   H       -8.41005         6.07806        -4.82236
   H      -12.18496         8.17310        -7.46331
   H      -12.98165         6.62965        -7.76141
   H      -11.35877         6.93280        -8.40362
   H       -9.79297         5.45176         1.91974
   H      -11.38525         6.39347         3.42162
   H      -17.17988        10.07940         2.64371
   H      -18.32366        11.48700         0.99206
   H      -14.55396        12.66920        -0.61568
   H      -13.40573        11.28585         1.04892
   H      -17.39594        14.03958        -0.50246
   H      -18.18647        12.62814        -1.20023
   H      -16.62138        13.17122        -1.82635
   H      -13.16080         5.31503         4.76260
   H      -12.14250         3.78601         6.39066
   H      -11.03343         7.10948         8.82297
   H      -12.02484         8.64154         7.18776
   H       -9.98953         3.95130         8.28413
   H      -11.57887         3.58287         8.94340
   H      -10.62499         4.90785         9.62571
   H      -16.26653        11.49330         4.45914
   H      -16.42794        10.04129         9.02815
   H      -20.08267        13.67727         6.32372
   H      -20.73294        15.50262         4.82098
   H      -19.43862        18.35595         7.71495
   H      -18.76426        16.53385         9.21231
   H      -20.37290        17.91250         4.21120
   H      -20.04135        19.09293         5.48924
   H      -21.63431        18.34824         5.35996
   H      -19.74006        10.23915        12.02413
   H      -19.11289         8.47220        13.59850
   H      -14.99137         9.14842        12.72232
   H      -15.61267        10.94938        11.17562
   H      -17.33305         7.51104        15.03477
   H      -15.62735         7.72329        14.60502
   H      -16.64522         6.62087        13.67976
   H      -20.78527        15.55334        10.28829
   H      -21.56179        16.14911        12.72459
   H      -22.79569        16.50518        17.88083
   H      -21.86207        11.63994        17.11503
   H      -22.97552        15.78972        20.58007
*
