# ORCA input file
# SCF done       -219.497986632804          0.000498773321
! CAM-B3LYP def2-SVP def2/J RIJCOSX Grid4 TightSCF
%maxcore 5000
%tddft
    Mode sTDDFT
    Ethresh 5.0
    maxcore 5000
end

%pal
  nprocs 6
  end
* xyz 0 1
   C       -0.82256         1.32363         6.27983
   C        0.24782         2.07148         5.86174
   C        1.55840         1.92113         6.36197
   N        2.64157         1.85205         6.73540
   C        0.20782         3.06001         4.85569
   N        0.25831         3.85955         4.03276
   C       -0.76617         0.22602         7.23626
   C       -2.03627        -0.39796         7.28286
   C       -2.30533        -1.47645         8.09010
   C       -1.26927        -1.96207         8.89413
   C       -0.00341        -1.32924         8.84576
   C        0.26811        -0.24015         8.02695
   S        1.12911        -2.08362         9.92556
   C       -0.09461        -3.22368        10.41941
   C       -1.29083        -3.05032         9.80828
  Br        0.32191        -4.53202        11.69608
   C       -2.96347         0.29200         6.36649
   O       -4.12998         0.01294         6.19230
   C       -2.18739         1.41823         5.79010
   C       -2.68190         2.48163         5.08661
   C       -3.94695         2.64980         4.48811
   C       -4.92829         1.73666         4.12407
   C       -6.01875         2.35182         3.52486
   C       -5.88208         3.75542         3.42893
   S       -4.39488         4.30286         4.04046
   C       -7.06265         4.28283         2.85483
   C       -7.94267         3.22101         2.57831
   C       -7.30789         1.97112         2.97275
   C       -7.81611         0.71421         2.83292
   C       -7.10441        -0.44799         3.20380
   N       -6.53770        -1.40697         3.47267
   C       -9.09436         0.48853         2.27800
   N      -10.13377         0.31046         1.82813
   C       -9.14904         3.64621         2.02730
   C       -9.19658         5.02305         1.88746
   S       -7.72175         5.80337         2.43422
   C      -10.27576         5.79924         1.39640
   C      -10.34721         7.17723         1.29230
   C      -11.57974         7.59806         0.79601
   C      -12.45081         6.52980         0.51715
   S      -11.75407         5.01066         0.86295
   C      -13.67630         7.05796         0.04068
   C      -13.58224         8.46099         0.01937
   C      -12.25980         8.84664         0.48750
   C      -11.76429        10.11041         0.61379
   C      -10.45821        10.35742         1.08795
   N       -9.39716        10.55417         1.47462
   C      -12.52614        11.24956         0.27670
   N      -13.14592        12.17314        -0.00063
   C      -14.75419         9.07635        -0.41664
   C      -15.73717         8.15335        -0.72786
   S      -15.20116         6.49698        -0.48184
   C      -17.05545         8.41200        -1.17851
   C      -18.03158         7.48232        -1.49677
   C      -19.22259         8.09165        -1.88308
   C      -19.15284         9.49584        -1.85767
   S      -17.61897        10.06461        -1.36341
   C      -20.41132        10.01657        -2.24049
   C      -21.27894         8.94085        -2.52043
   C      -20.55934         7.69733        -2.30626
   C      -21.02940         6.42765        -2.46484
   C      -20.22217         5.29682        -2.21689
   N      -19.56284         4.37972        -2.02067
   C      -22.34708         6.16087        -2.89503
   N      -23.41317         5.93792        -3.25198
   C      -22.54713         9.35995        -2.90712
   C      -22.67583        10.74036        -2.88398
   S      -21.16324        11.52941        -2.43495
   C      -23.83149        11.46603        -3.25484
   C      -24.17176        12.75434        -2.98253
   C      -23.67263        13.71939        -2.02533
   C      -23.18165        13.43824        -0.77658
   C      -22.80791        14.42351         0.15932
   N      -22.47451        15.18968         0.94603
   C      -23.09167        12.13038        -0.25790
   N      -23.04419        11.08232         0.20839
   C      -24.07548        15.04033        -2.49326
   C      -25.00710        14.88129        -3.55107
   C      -25.17539        13.44358        -3.84221
   O      -25.92124        12.92649        -4.63995
   C      -25.61056        15.95123        -4.16629
   C      -25.26980        17.23467        -3.72596
   C      -24.32602        17.38179        -2.68029
   C      -23.72225        16.30025        -2.05061
   S      -24.04477        19.05354        -2.30366
   C      -25.18688        19.52736        -3.53342
   C      -25.74910        18.48802        -4.19536
  Br      -25.52655        21.34748        -3.82782
   H       -3.28381        -1.93036         8.09903
   H        1.24675         0.20974         8.02994
   H       -2.15413        -3.66286         9.99379
   H       -2.03570         3.34662         4.98971
   H       -4.83655         0.68128         4.29953
   H       -9.96348         3.00397         1.74384
   H       -9.53667         7.82539         1.57368
   H      -14.90299        10.13758        -0.50536
   H      -17.86581         6.42141        -1.44017
   H      -23.36364         8.70920        -3.16331
   H      -24.51497        10.93975        -3.91529
   H      -26.32474        15.80392        -4.96107
   H      -23.00499        16.45691        -1.26178
   H      -26.47231        18.59879        -4.98250
*
