104
 SCF done       -226.848365558372          0.000815665749
C           1.90560600599696    1.09831141412165   -2.87904459109998
C           2.20159249449916    2.15536019137450   -2.01733408544727
C           1.94257138376983    3.53313342756339   -2.57301797839594
O           1.90237318963948    3.71125636150077   -3.75773980716758
O           1.74338167248753    4.53856390413408   -1.72031066835104
C           2.75750063399702    1.89731118731381   -0.75185260103680
C           3.08484886314992    2.92242065920118    0.16710810646324
N           3.35371891823317    3.71696503128920    0.94997563970192
C           3.03707440588317    0.58423882293711   -0.35188970871240
C           2.73509282163352   -0.44182214882929   -1.21745824844869
C           2.15700647975335   -0.20175114036085   -2.47660749371612
C           1.95736189371133   -1.48407998809823   -3.14782178194811
C           1.24504685304431   -1.67746267160748   -4.29996586630353
C           0.62742304323696   -0.64141435410275   -5.03557438883814
N           0.09306956077155    0.14872657114910   -5.67191397137635
C           0.97594684545965   -2.94145255299035   -4.86987620058076
N           0.70853668372313   -3.93891195049478   -5.37058191284968
C           2.54356600123814   -2.51544604236826   -2.31147338379880
C           2.96862348939708   -1.89454173267759   -1.03646817920226
O           3.47120159237298   -2.41593858542569   -0.06650337827291
C           2.84325338238061   -3.78269542803186   -2.73647659136471
C           3.31820383756872   -4.87369246197088   -1.98527007288422
C           3.25261370267205   -5.15009603535835   -0.62412975528148
C           3.83740526356981   -6.36767596909078   -0.31012337540476
C           4.37083418822182   -7.03518508338761   -1.43765639646318
S           4.09990105241582   -6.18425902324034   -2.88202264956426
C           4.99862174193845   -8.22357223968581   -0.99915229228675
C           4.85214457380544   -8.32290093453307    0.39701285030933
C           4.10210199531312   -7.16914614447463    0.87309612848860
C           3.72462398996454   -6.90743965019699    2.15623465270042
C           4.05942956741070   -7.77432398533277    3.21902195760966
N           4.33865287586221   -8.48153238334636    4.07693386673646
C           2.96116102952594   -5.77326852152736    2.51080202183144
N           2.32134400020248   -4.87157956834468    2.81196199610117
C           5.46928191093122   -9.45282901420403    0.92728358949308
C           6.09665649540229  -10.20589424560758   -0.05165558733255
S           5.90029611401772   -9.51956555799634   -1.65519298423855
C           6.87317777915938  -11.37710318001853    0.13157141937174
C           7.62289773249771  -12.04623908210795   -0.82038483956408
C           8.32184383609669  -13.11892226421449   -0.27130055114903
C           8.08942704292007  -13.27572968062645    1.10729640277039
S           7.01634992274960  -12.10167607886117    1.72668726060288
C           8.87388505626526  -14.35805265552966    1.57734533447350
C           9.61410325500499  -14.87699973122594    0.49906637127737
C           9.28044504401335  -14.12544465113332   -0.70092364607347
C           9.77032330965159  -14.31648253879749   -1.95854228381150
C          10.71332057634896  -15.32642742729691   -2.24671999723681
N          11.48181611068050  -16.14616282385421   -2.47306877438426
C           9.36656850341024  -13.51365586707939   -3.04696723756703
N           9.03531283802339  -12.85695424344001   -3.92604593670721
C          10.45823374664748  -15.91997287531137    0.87339791329305
C          10.35869959961947  -16.20540920491093    2.22404552831321
S           9.19679525202999  -15.17039637256198    3.04288851683549
C          11.09478751336330  -17.16797996255621    2.95861078039446
C          10.91389927510428  -17.53530490773412    4.28240652696909
C          11.84721735308321  -18.48472331944985    4.68922420054743
C          12.75246719805818  -18.83447833458653    3.66992583253380
S          12.43664199854205  -18.01159609388471    2.20503515474236
C          13.67455552045034  -19.77104555821174    4.18746083557015
C          13.35061755582226  -20.02580719768137    5.53922673447381
C          12.18599128752678  -19.23123513385312    5.89273500420178
C          11.54599373937507  -19.18612812505475    7.09529123014131
C          11.97043202293283  -19.95396563333858    8.20138765395683
N          12.31591994612886  -20.57159610277543    9.10268666756283
C          10.42010701272676  -18.36216677848968    7.30990862548696
N           9.50804458885650  -17.68868777433225    7.47843953763550
C          14.23117677833995  -20.91093286808243    6.14345559317380
C          15.21738380586501  -21.35924686673911    5.27028901666883
S          15.04878452427648  -20.62676788010903    3.67246704591888
C          16.30348910550342  -22.17935221687075    5.63010931162849
C          17.26130303055367  -22.76129483867998    4.85214026397749
C          18.56842165622236  -23.12730919255096    5.46363974541088
O          18.82491994709724  -23.20774817567563    6.63949515537585
C          19.49107124404434  -23.30375282925480    4.31437793464476
C          18.76462094973925  -23.19270082649321    3.11452528532077
C          19.41910827357741  -23.25835477424089    1.89623811188706
C          20.79784094362386  -23.45676625219888    1.88108851215157
C          21.51257557259298  -23.58425415097797    3.08376302938480
C          20.85381146636264  -23.50721258710196    4.31544731429247
C          22.91171271614848  -23.81909248129211    3.09133376793692
N          24.02929971422740  -24.04282045830806    3.19977172826327
C          21.56529073699305  -23.46567484349600    0.58870630926063
O          22.68096505461248  -23.03905362918847    0.51039872916905
O          20.92809550475417  -23.96360115021361   -0.47655573227006
C          17.34673956871762  -23.03376973037104    3.43686403010125
C          16.31631822199270  -23.39991503034418    2.60952987576740
C          14.98023341944013  -23.51451850384713    3.04499229298577
N          13.89330231147753  -23.65050710618322    3.38667521253572
C          16.52218139428346  -23.81831640593577    1.28014828420990
N          16.68558993704949  -24.16374751165329    0.19788442089884
H           1.50026852689980    1.33851693685613   -3.84973727276214
H           1.84282303515619    4.31999727392884   -0.78185313898109
H           3.48227306923199    0.38281484338435    0.61081440952091
H           2.75308570625720   -3.97895994186042   -3.79883406843796
H           2.79363910882167   -4.48821816601260    0.08568337437441
H           5.48562631220004   -9.72139249119470    1.96832218739994
H           7.65869628815555  -11.74427494021720   -1.85178246782699
H          11.11753277791657  -16.45335304216261    0.21226712724786
H          10.13682327170026  -17.12219540245832    4.90018654949358
H          14.17483698966645  -21.24137121556092    7.16506676981462
H          16.46563597281964  -22.27828725803704    6.69973717405534
H          18.87808176387497  -23.10713363341072    0.97373034485734
H          21.39997026891621  -23.60025790213184    5.24176278412635
H          20.04285786325923  -24.30739130773635   -0.29130013359400
