96
 SCF done       -213.463711030412          0.000651313268
C          -0.14850208931845   -0.76397470627567    0.09809170079985
C          -1.26752589376877   -0.99002354262450    0.85545256319552
C          -1.69007971650032   -0.14885364180994    1.90769171931133
N          -2.08190955975926    0.49729166412159    2.77040984767418
C          -2.18411828259606   -2.03318583276589    0.61789095983890
N          -2.97115622985770   -2.85160224784725    0.44874150409116
C           0.67288878554992    0.44361580895321    0.16813267025982
C           1.39109076552552    0.57753737349782   -1.03441578513071
C           2.22292686249416    1.65466817161722   -1.26404939847834
C           2.35139885126762    2.61292764877165   -0.26588812726146
C           1.65385120068179    2.47602518625074    0.94088315842768
C           0.80815940045145    1.39460267098013    1.16480893555029
Cl          1.83974328146294    3.65691493721961    2.17122233668977
Cl          3.37545697314437    3.96738221302710   -0.51400533529367
C           1.11266488923677   -0.58258545295170   -1.90622674807399
O           1.50697463276005   -0.78561883982255   -3.02961444284904
C           0.27526424479435   -1.49633951857397   -1.07762361576012
C           0.12462791819791   -2.78871920833009   -1.48388420024371
C          -0.27856321490977   -3.91064234264464   -0.72991636735091
C          -0.29498584187480   -4.07244546582776    0.64875016749495
C          -0.74344939967052   -5.33002222510374    1.02498462779801
C          -1.06715847986321   -6.15188520868469   -0.07548683837898
S          -0.79551253030671   -5.37401327980944   -1.56329910842231
C          -1.54512676354806   -7.38990962667093    0.42021218143580
C          -1.53178699533764   -7.34777601759757    1.82647626292708
C          -1.03255988289874   -6.04960315152607    2.25198357646726
C          -0.89761634625972   -5.58348342215532    3.52634427635255
C          -1.22167259107800   -6.37117408865313    4.65093228251657
N          -1.47852364488480   -7.02055649058895    5.55996325296060
C          -0.42465534969936   -4.27878624254083    3.78263782780962
N          -0.03603642476813   -3.21653856240925    3.96985734376025
C          -2.00228946852178   -8.52079758398894    2.41058347580273
C          -2.36983991595459   -9.45912405726698    1.46098616641429
S          -2.13138245530578   -8.87936593040859   -0.17913848712423
C          -2.89244747538641  -10.75482974784380    1.69950366297355
C          -3.22642595739849  -11.72277744013973    0.76878551220066
C          -3.71869795850631  -12.87823643912141    1.37425526539216
C          -3.76242492754722  -12.78343843194706    2.77643527198066
S          -3.19319914625215  -11.28098221967681    3.35002210937987
C          -4.28026593694888  -13.99507040169169    3.29655316457736
C          -4.56020611063728  -14.86140529376397    2.22480256494760
C          -4.21674529992157  -14.18804053194290    0.98117112237875
C          -4.33794613861047  -14.67939898569541   -0.28469215414900
C          -4.83946233428965  -15.97378464446197   -0.53925500519506
N          -5.24688505456951  -17.02596131687834   -0.74138862872087
C          -3.96945908000443  -13.92368068466241   -1.41823544196268
N          -3.66894340964171  -13.30684029038731   -2.33644894629929
C          -5.08011880485702  -16.08631114802481    2.64073743751450
C          -5.20233744450851  -16.15424861762360    4.01745803346817
S          -4.66038493475911  -14.68140275961164    4.81108196461512
C          -5.69714743948842  -17.22908296059097    4.79732748867615
C          -5.86479491534608  -17.25177307123044    6.17201577778510
C          -6.38173845838043  -18.46688437057359    6.61286526070073
C          -6.60429914990541  -19.37981664570067    5.56591248648115
S          -6.18148774513582  -18.73577596172635    4.03839310061228
C          -7.12246951507791  -20.57709945764310    6.11195133664336
C          -7.23751337226373  -20.41828587711362    7.51343334887612
C          -6.76433136145618  -19.09171243824595    7.87123197483632
C          -6.67556262162776  -18.54319732559155    9.11565826022422
C          -7.03016971699291  -19.23751265107038   10.29357305497740
N          -7.28928965386979  -19.78124365945195   11.26826566421210
C          -6.19513287571030  -17.23040509001695    9.31360085502164
N          -5.80674583356224  -16.16310491955196    9.46973081992585
C          -7.75878012569101  -21.53492477413528    8.14937178954324
C          -8.04172031976172  -22.56310449975707    7.25717678666575
S          -7.63348980539765  -22.11064722279079    5.59262533898244
C          -8.51960008197048  -23.87475618930938    7.43896858328229
C          -9.06059023033878  -24.48455073330884    8.53931203590398
C          -9.40504002320393  -25.89637266540131    8.59803270294596
C          -9.04662056395999  -26.87291362497301    7.70623949417496
C          -9.40564660197326  -28.23231726082248    7.83718906250932
N          -9.66289382583460  -29.34988498371299    7.87784145180651
C          -8.25062752377819  -26.69123728685707    6.55465333837559
N          -7.59749544091926  -26.63583520696723    5.61160678058245
C         -10.14560012590446  -26.12157120519412    9.83622979838533
C         -10.21023059058027  -24.91354349710766   10.54990729359483
C          -9.52744950194271  -23.84445301763419    9.79280498432373
O          -9.43273071477869  -22.68575794746971   10.13279721062102
C         -10.84308940267280  -24.81873311660135   11.77245007472574
C         -11.42954364968189  -25.96236677440650   12.29955564569822
C         -11.37430229578621  -27.17089330034344   11.59424788181943
C         -10.73445298928899  -27.26012382804906   10.36282701232678
Cl        -12.10824745877828  -28.57561320650650   12.25323364099223
Cl        -12.22399668133589  -25.89124926435786   13.81870291860060
H           2.75877004941738    1.74823543132305   -2.19531385335979
H           0.29140929802340    1.31389320055476    2.10734728228876
H           0.42082154416665   -2.97972761128029   -2.51091193212631
H           0.04904293955335   -3.31675195603718    1.33082547656347
H          -2.07950767332205   -8.69923136358760    3.46819198375945
H          -3.10994927766255  -11.57701911669565   -0.29019743274427
H          -5.36332827803313  -16.89448915265563    1.99038267568507
H          -5.62075364297677  -16.41517623611211    6.80177453487001
H          -7.94094895838190  -21.61795882126950    9.20516856649831
H          -8.44415334024972  -24.48197208550351    6.54437613223455
H         -10.87616163677425  -23.87956608822718   12.30184342211126
H         -10.71642712641552  -28.20742220002709    9.84977557301627
