# ORCA input file
# SCF done       -213.463711030412          0.000651313268
! CAM-B3LYP def2-SVP def2/J RIJCOSX Grid4 TightSCF
%maxcore 5000
%tddft
    Mode sTDDFT
    Ethresh 5.0
    maxcore 5000
end

%pal
  nprocs 6
  end
* xyz 0 1
   C       -0.14850        -0.76397         0.09809
   C       -1.26753        -0.99002         0.85545
   C       -1.69008        -0.14885         1.90769
   N       -2.08191         0.49729         2.77041
   C       -2.18412        -2.03319         0.61789
   N       -2.97116        -2.85160         0.44874
   C        0.67289         0.44362         0.16813
   C        1.39109         0.57754        -1.03442
   C        2.22293         1.65467        -1.26405
   C        2.35140         2.61293        -0.26589
   C        1.65385         2.47603         0.94088
   C        0.80816         1.39460         1.16481
  Cl        1.83974         3.65691         2.17122
  Cl        3.37546         3.96738        -0.51401
   C        1.11266        -0.58259        -1.90623
   O        1.50697        -0.78562        -3.02961
   C        0.27526        -1.49634        -1.07762
   C        0.12463        -2.78872        -1.48388
   C       -0.27856        -3.91064        -0.72992
   C       -0.29499        -4.07245         0.64875
   C       -0.74345        -5.33002         1.02498
   C       -1.06716        -6.15189        -0.07549
   S       -0.79551        -5.37401        -1.56330
   C       -1.54513        -7.38991         0.42021
   C       -1.53179        -7.34778         1.82648
   C       -1.03256        -6.04960         2.25198
   C       -0.89762        -5.58348         3.52634
   C       -1.22167        -6.37117         4.65093
   N       -1.47852        -7.02056         5.55996
   C       -0.42466        -4.27879         3.78264
   N       -0.03604        -3.21654         3.96986
   C       -2.00229        -8.52080         2.41058
   C       -2.36984        -9.45912         1.46099
   S       -2.13138        -8.87937        -0.17914
   C       -2.89245       -10.75483         1.69950
   C       -3.22643       -11.72278         0.76879
   C       -3.71870       -12.87824         1.37426
   C       -3.76242       -12.78344         2.77644
   S       -3.19320       -11.28098         3.35002
   C       -4.28027       -13.99507         3.29655
   C       -4.56021       -14.86141         2.22480
   C       -4.21675       -14.18804         0.98117
   C       -4.33795       -14.67940        -0.28469
   C       -4.83946       -15.97378        -0.53926
   N       -5.24689       -17.02596        -0.74139
   C       -3.96946       -13.92368        -1.41824
   N       -3.66894       -13.30684        -2.33645
   C       -5.08012       -16.08631         2.64074
   C       -5.20234       -16.15425         4.01746
   S       -4.66038       -14.68140         4.81108
   C       -5.69715       -17.22908         4.79733
   C       -5.86479       -17.25177         6.17202
   C       -6.38174       -18.46688         6.61287
   C       -6.60430       -19.37982         5.56591
   S       -6.18149       -18.73578         4.03839
   C       -7.12247       -20.57710         6.11195
   C       -7.23751       -20.41829         7.51343
   C       -6.76433       -19.09171         7.87123
   C       -6.67556       -18.54320         9.11566
   C       -7.03017       -19.23751        10.29357
   N       -7.28929       -19.78124        11.26827
   C       -6.19513       -17.23041         9.31360
   N       -5.80675       -16.16310         9.46973
   C       -7.75878       -21.53492         8.14937
   C       -8.04172       -22.56310         7.25718
   S       -7.63349       -22.11065         5.59263
   C       -8.51960       -23.87476         7.43897
   C       -9.06059       -24.48455         8.53931
   C       -9.40504       -25.89637         8.59803
   C       -9.04662       -26.87291         7.70624
   C       -9.40565       -28.23232         7.83719
   N       -9.66289       -29.34988         7.87784
   C       -8.25063       -26.69124         6.55465
   N       -7.59750       -26.63584         5.61161
   C      -10.14560       -26.12157         9.83623
   C      -10.21023       -24.91354        10.54991
   C       -9.52745       -23.84445         9.79280
   O       -9.43273       -22.68576        10.13280
   C      -10.84309       -24.81873        11.77245
   C      -11.42954       -25.96237        12.29956
   C      -11.37430       -27.17089        11.59425
   C      -10.73445       -27.26012        10.36283
  Cl      -12.10825       -28.57561        12.25323
  Cl      -12.22400       -25.89125        13.81870
   H        2.75877         1.74824        -2.19531
   H        0.29141         1.31389         2.10735
   H        0.42082        -2.97973        -2.51091
   H        0.04904        -3.31675         1.33083
   H       -2.07951        -8.69923         3.46819
   H       -3.10995       -11.57702        -0.29020
   H       -5.36333       -16.89449         1.99038
   H       -5.62075       -16.41518         6.80177
   H       -7.94095       -21.61796         9.20517
   H       -8.44415       -24.48197         6.54438
   H      -10.87616       -23.87957        12.30184
   H      -10.71643       -28.20742         9.84978
*
