# ORCA input file
# SCF done       -314.742198028228          0.000403411466
! CAM-B3LYP def2-SVP def2/J RIJCOSX Grid4 TightSCF
%maxcore 5000
%tddft
    Mode sTDDFT
    Ethresh 5.0
    maxcore 5000
end

%pal
  nprocs 6
  end
* xyz 0 1
   C      -18.71555       -11.57505         3.46082
   C      -19.21186       -12.16155         2.33058
   F      -20.53058       -12.35933         2.19753
   C      -18.34778       -12.56569         1.29353
   F      -18.86181       -13.13997         0.19654
   C      -16.99852       -12.37686         1.40088
   C      -16.45643       -11.77598         2.55345
   C      -17.32889       -11.36656         3.60310
   C      -16.80714       -10.76243         4.77014
   C      -15.45471       -10.57534         4.88287
   C      -14.59175       -10.99139         3.83274
   C      -15.06524       -11.57521         2.69377
   C      -13.18928       -10.69927         4.19582
   O      -12.21924       -10.92856         3.50474
   C      -13.24396       -10.15111         5.57080
   C      -14.63748        -9.99861         5.94550
   C      -15.11676        -9.35632         7.05736
   C      -16.48817        -9.22045         7.35637
   N      -17.58872        -9.08580         7.65444
   C      -14.32153        -8.70854         8.02676
   N      -13.74701        -8.13961         8.84208
   C      -12.19385       -10.02696         6.44024
   C      -10.81191       -10.10542         6.16715
   C      -10.11031        -9.88616         5.00516
   C       -8.72306       -10.08640         5.13436
   C       -8.35042       -10.43288         6.46243
   S       -9.73830       -10.50073         7.50883
   C       -7.04824       -10.72321         6.83425
   C       -6.70759       -11.12449         8.20620
   C       -5.99857       -12.29803         8.44901
   C       -5.68994       -12.67372         9.74126
   C       -6.07476       -11.89235        10.82498
   C       -6.78512       -10.72443        10.57848
   C       -7.10190       -10.34418         9.28871
   C       -5.75093       -12.31754        12.22387
   C       -6.07382       -10.63727         5.82527
   C       -6.44159       -10.26470         4.50509
   C       -7.74316        -9.99164         4.12397
   C       -8.09358        -9.65013         2.74077
   C       -9.11897       -10.31858         2.07478
   C       -9.43297        -9.99007         0.77089
   C       -8.74303        -8.99003         0.09563
   C       -7.71973        -8.32769         0.76294
   C       -7.39444        -8.65287         2.06489
   C       -9.07901        -8.65116        -1.32388
   S       -5.05947       -10.27474         3.43711
   C       -4.01181       -10.76137         4.75407
   C       -4.68583       -10.89117         5.93393
   C       -2.62961       -11.00436         4.50886
   C       -1.96360       -10.88202         3.32517
   C       -0.59910       -11.25465         3.39964
   C       -0.24321       -11.70303         4.69708
   S       -1.59409       -11.59046         5.79779
   C        1.02712       -12.14804         5.02372
   C        1.38876       -12.55219         6.38897
   C        0.61907       -13.47607         7.08864
   C        0.96556       -13.84750         8.37366
   C        2.08225       -13.30708         8.99789
   C        2.84598       -12.37931         8.29824
   C        2.50805       -12.00581         7.01291
   C        2.47151       -13.72280        10.38314
   C        1.96553       -12.18486         3.97737
   C        1.60787       -11.73999         2.67938
   C        0.35107       -11.24844         2.36520
   C        0.02595       -10.72956         1.03041
   C        0.29440       -11.47618        -0.11313
   C       -0.00470       -10.97274        -1.36377
   C       -0.57211        -9.71263        -1.51136
   C       -0.83486        -8.96818        -0.36784
   C       -0.54305        -9.46679         0.88658
   C       -0.91049        -9.18133        -2.87002
   S        2.95134       -11.86717         1.57538
   C        3.95946       -12.55113         2.83313
   C        3.30122       -12.65282         4.02590
   C        5.30344       -12.93699         2.54657
   C        6.22163       -13.45661         3.41695
   C        7.47656       -13.72801         2.82377
   C        7.47780       -13.41874         1.43635
   S        5.94559       -12.76044         0.92867
   C        8.56125       -13.65150         0.61347
   C        8.63005       -13.25125        -0.79684
   C        8.41557       -11.92243        -1.15073
   C        8.63624       -11.50149        -2.44707
   C        9.06673       -12.38933        -3.42595
   C        9.22855       -13.72607        -3.07969
   C        9.01648       -14.15426        -1.78409
   C        9.39518       -11.90998        -4.80334
   C        9.70145       -14.20632         1.22786
   C        9.72445       -14.46801         2.62327
   C        8.63155       -14.24083         3.44372
   C        8.68193       -14.49139         4.88992
   C        8.28981       -13.50926         5.79540
   C        8.34536       -13.74727         7.15507
   C        8.78978       -14.96704         7.64975
   C        9.18619       -15.94319         6.74269
   C        9.13774       -15.71125         5.38256
   C        8.86712       -15.22132         9.12351
   S       11.30384       -15.00116         3.13190
   C       11.93258       -14.82758         1.49781
   C       10.94714       -14.43728         0.62333
   C       13.28296       -15.12569         1.22151
   C       14.00409       -14.88803         0.08513
   C       15.24885       -15.67416        -0.12907
   O       15.84742       -16.32645         0.69502
   C       15.55488       -15.53669        -1.56851
   C       16.52719       -16.15220        -2.30180
   C       16.61051       -15.89142        -3.68833
   C       15.67540       -14.99941        -4.28865
   C       15.75927       -14.74874        -5.67296
   C       16.72808       -15.35166        -6.42483
   C       17.65320       -16.23237        -5.82994
   C       17.59670       -16.49775        -4.49036
   F       18.59200       -16.81064        -6.59210
   F       16.80682       -15.10983        -7.74068
   C       14.68346       -14.37103        -3.50109
   C       14.62905       -14.63013        -2.15791
   C       13.76166       -14.10249        -1.10506
   C       13.04683       -12.93430        -1.20530
   C       12.46941       -12.27107        -0.10363
   N       12.02167       -11.67476         0.76884
   C       12.84181       -12.23260        -2.40845
   N       12.60223       -11.64717        -3.36731
   H      -19.39122       -11.27067         4.24484
   H      -16.35006       -12.69240         0.59855
   H      -17.49206       -10.47055         5.54969
   H      -14.38709       -11.88193         1.91193
   H      -12.43302        -9.91580         7.49185
   H      -10.57495        -9.56254         4.09395
   H       -5.70994       -12.92814         7.62006
   H       -5.14254       -13.58958         9.91367
   H       -7.09338       -10.10256        11.40646
   H       -7.64073        -9.42408         9.11685
   H       -4.77290       -12.79208        12.26787
   H       -6.48981       -13.03987        12.57266
   H       -5.76336       -11.46770        12.90183
   H       -9.66207       -11.10680         2.57317
   H      -10.23069       -10.51915         0.27009
   H       -7.17368        -7.54359         0.25813
   H       -6.61099        -8.11042         2.57345
   H      -10.13510        -8.81801        -1.52301
   H       -8.50482        -9.28352        -2.00216
   H       -8.83596        -7.61431        -1.54445
   H       -4.19771       -11.16027         6.85369
   H       -2.44369       -10.55623         2.41936
   H       -0.24410       -13.92005         6.61539
   H        0.35850       -14.57043         8.89959
   H        3.71426       -11.94155         8.77030
   H        3.09920       -11.26618         6.49218
   H        1.62966       -14.16873        10.90687
   H        2.83241       -12.87051        10.95519
   H        3.27407       -14.46004        10.33936
   H        0.72148       -12.46368        -0.01951
   H        0.20616       -11.56734        -2.24104
   H       -1.26967        -7.98310        -0.46103
   H       -0.73254        -8.86508         1.76387
   H       -0.18725        -9.51937        -3.60871
   H       -0.93346        -8.09419        -2.86827
   H       -1.89436        -9.54010        -3.17495
   H        3.74502       -13.06771         4.91216
   H        6.00559       -13.65555         4.45039
   H        8.11413       -11.21272        -0.39496
   H        8.49146       -10.46152        -2.70030
   H        9.53809       -14.43771        -3.83242
   H        9.14023       -15.19869        -1.53210
   H       10.44158       -11.60190        -4.82965
   H        8.78396       -11.05305        -5.07548
   H        9.25371       -12.69878        -5.53857
   H        7.96448       -12.54640         5.42900
   H        8.04192       -12.97140         7.84375
   H        9.53594       -16.89785         7.10851
   H        9.43543       -16.48783         4.69348
   H        8.23047       -14.53194         9.67276
   H        9.89223       -15.08671         9.46996
   H        8.56852       -16.24146         9.35607
   H       11.09974       -14.34738        -0.43579
   H       13.81433       -15.68783         1.98346
   H       17.22420       -16.82865        -1.83111
   H       15.06123       -14.07411        -6.14364
   H       18.31209       -17.17448        -4.04991
   H       13.98496       -13.70562        -3.98283
*
