135
 SCF done       -231.289605111312          0.001057370866
C          -3.81153876407441    4.67647099833269  -18.58931250550523
C          -4.56794917064214    3.94987202222390  -19.46517955039673
F          -4.45070079816710    4.15130641714175  -20.78452668401985
C          -5.47776762562629    2.98125868329620  -18.99566556031501
F          -6.20577814148759    2.28246711286771  -19.87773837117123
C          -5.61790459953278    2.75225358264860  -17.65583835993917
C          -4.84974977091510    3.48218392728005  -16.72798374235209
C          -3.93073745097458    4.46364803217975  -17.20087900254942
C          -3.14777529747649    5.20659890974106  -16.28801609354631
C          -3.27614966351608    4.96935023016582  -14.94431415665083
C          -4.18871583936256    3.98218908828465  -14.48263589164656
C          -4.96381107100205    3.25470873547293  -15.33880749073506
C          -4.12563676316463    3.89127830818051  -13.00826010354386
O          -4.80404417440735    3.16250334266488  -12.31877768319325
C          -3.03397297244679    4.81667470857368  -12.60509041453468
C          -2.60504848962565    5.54925587484223  -13.78695024545843
C          -1.77687283650928    6.63933547236692  -13.80745806904779
C          -1.21013599262369    7.24352765076751  -12.66431346248248
N          -0.72980048594502    7.79998578584583  -11.78229211293542
C          -1.41370269470413    7.32843231892473  -14.98380062599279
N          -1.08129058449483    7.92062432547893  -15.90945966443412
C          -2.35682756950270    4.79828909526695  -11.42297807274222
C          -2.69749112539667    4.09173740496041  -10.22229278645334
C          -1.64680831652825    3.57307851801345   -9.44397804305934
C          -1.89204375853069    2.78415107535410   -8.34219332549219
C          -3.21135628204585    2.53171438623714   -7.98282762424886
C          -4.26834040476433    3.11692507836818   -8.70234721614850
C          -4.02396024058480    3.89427757798236   -9.80556002114627
C          -5.60143421392521    2.72092502019162   -8.10979467800293
C          -6.33492883134212    3.94198472447223   -7.54569838773880
C          -6.46913127720035    2.00182018081567   -9.14730454445580
C          -5.17174610710973    1.77615230059701   -7.01054943917362
C          -5.95611841408545    1.00389563933556   -6.18716235097269
C          -5.35186918912906    0.11629591337046   -5.29023286707136
C          -3.95696249010250    0.07707820695171   -5.20571592482751
C          -3.16126946611273    0.86271824587945   -6.01641899543327
C          -3.77039817994947    1.69817953317418   -6.94147180671780
C          -6.15834700280591   -0.84025980796084   -4.52316751547526
C          -7.28180557588830   -1.41742647012913   -5.12009053431559
C          -7.99938499643947   -2.41712564683370   -4.49283317378390
C          -7.57906318423813   -2.85651036433277   -3.24842747950837
C          -6.47378479479127   -2.26298257180939   -2.62012675294819
C          -5.77333508872853   -1.25708766541749   -3.24406987747821
C          -6.20951148283409   -2.92021576491739   -1.28174493271928
C          -4.77714670093922   -3.44789635617144   -1.18236124993165
C          -6.50128490125171   -1.94310512396002   -0.13636440752168
C          -7.22666590643988   -4.04206081726206   -1.28903931502086
C          -7.39078412733127   -5.07109376601800   -0.39009235582984
C          -8.39367647834973   -6.01952519825181   -0.61071530582671
C          -9.23469938439018   -5.88834585406732   -1.71737454959834
C          -9.06975847504468   -4.86355546557732   -2.62865193764546
C          -8.04938094765215   -3.95005203399719   -2.42226020268420
C          -8.53572490265001   -7.20378182437661    0.24594362097091
C          -9.80332613586967   -7.67486733103900    0.59618829872089
C          -9.96562247333655   -8.86745414738121    1.27308661068666
C          -8.83776050786205   -9.60754855274986    1.59757798131547
C          -7.55532441766575   -9.11842484513690    1.29856912099194
C          -7.40195494198358   -7.92319488530267    0.63543014978642
C          -6.49296882914268  -10.09453731289115    1.75352994822155
C          -5.58269989451340  -10.51994309831279    0.59893057324824
C          -5.66672049345333   -9.50122503654709    2.90072934721275
C          -7.33677928183910  -11.24618045537471    2.25264156388168
C          -6.93466970175185  -12.48002220674058    2.69375205331597
C          -7.89816011050513  -13.42000521049578    3.09921620479695
C          -9.25862628528441  -13.08318549185528    3.02086647854807
C          -9.66652681443817  -11.84936183079020    2.56389908413437
C          -8.70426910483301  -10.92413779042010    2.18068631163642
C          -7.46507529229098  -14.73450941910377    3.47674838171153
C          -8.09962983495921  -15.68378934721610    4.21101689351337
C          -7.68474226289972  -17.10699893832284    4.06793634414855
O          -6.66510391344308  -17.52034163945576    3.56688273362470
C          -8.81581211536651  -17.89303554040993    4.60459454861935
C          -9.02152269428077  -19.24150009209792    4.55803034873776
C         -10.21756837632306  -19.77218534258490    5.09125106323368
C         -11.17618133624781  -18.89178966812200    5.67236928722420
C         -12.37186991932486  -19.42813399992803    6.19151128965870
C         -12.60618852320336  -20.77324482732412    6.13325738409315
C         -11.65835201276219  -21.64245639082322    5.55675987748367
C         -10.48748127048332  -21.15410261951661    5.04872356090932
F         -11.91703525899626  -22.95674714947327    5.50855106273602
F         -13.74558820300485  -21.28016062320160    6.62327204881729
C         -10.92934556885000  -17.50043619704316    5.71870646691432
C          -9.76592034890233  -17.00852352034030    5.19028254365747
C          -9.25268079515996  -15.64478657117146    5.08806423817217
C          -9.64119220752352  -14.58699695992276    5.86597050002565
C          -8.96181911201382  -13.35072625061554    5.88491284406479
N          -8.41353818291319  -12.34633626848198    5.96700505572825
C         -10.71036489604193  -14.64302616503947    6.78216964702698
N         -11.58490999687525  -14.64365601848894    7.52561925458469
H          -3.12114971873194    5.41512185425383  -18.96578769688318
H          -6.31771011845080    2.00672584768047  -17.31185954954304
H          -2.45622676965696    5.93703244009413  -16.67601234907329
H          -5.64994844061559    2.51207147258491  -14.96050657461200
H          -1.39552679675037    5.30008904521692  -11.39761088257563
H          -0.62840680840503    3.76423662435330   -9.75164441270776
H          -1.07529952695027    2.36371142727609   -7.77499273391139
H          -4.83087540684550    4.36618150528566  -10.34028526202564
H          -6.60786133761298    4.61938422510652   -8.35083948198304
H          -5.69833003324070    4.47459391917594   -6.84201551744942
H          -7.23981714513091    3.63175441657051   -7.02833457789229
H          -6.61845596797784    2.63479260677736  -10.01770078195782
H          -7.43834055538861    1.75018726911761   -8.72225541347457
H          -5.98081401621211    1.08599680769473   -9.47372002923043
H          -7.03293945828026    1.07117720108194   -6.23331224211538
H          -3.49133959792508   -0.61696879939726   -4.52185233109067
H          -2.08503534182802    0.80226296037045   -5.95111068410967
H          -7.56797254397793   -1.10782925067239   -6.11420821800855
H          -8.85290518630233   -2.86595568156489   -4.97872294752759
H          -4.92855970344224   -0.78972517448701   -2.75929390066972
H          -4.06708356497020   -2.62605283178115   -1.23607172155280
H          -4.57247905049309   -4.13883958974195   -1.99762025899338
H          -4.63031114085111   -3.96803997765319   -0.23875383416196
H          -5.81828770743524   -1.09778949440035   -0.17878631852726
H          -6.38370197950797   -2.44086163070031    0.82344177232352
H          -7.52049572043554   -1.56982192812773   -0.21118181621029
H          -6.75948062565785   -5.15416951208361    0.48300127596120
H          -9.99998709940837   -6.63199888698001   -1.88476152468683
H          -9.71039416968027   -4.79128408967436   -3.49479236190454
H         -10.67135891455387   -7.09050815137354    0.32831498334767
H         -10.95241655617828   -9.22479290210356    1.52647917897402
H          -6.42110961635957   -7.55849120194459    0.36721385228992
H          -5.03269191457034   -9.66351645355722    0.21680256284155
H          -6.17294057162119  -10.94289232573559   -0.21133234641856
H          -4.86802427547094  -11.26676177477753    0.93569400854620
H          -5.12446598492938   -8.62298189350440    2.55841659432630
H          -4.95182705315826  -10.23365402813250    3.26727661572273
H          -6.31804313724880   -9.21268884277629    3.72249180618272
H          -5.88811920405793  -12.74207121444698    2.74772777338666
H         -10.00094701302778  -13.82744813262829    3.26981566409266
H         -10.71752395200857  -11.61403771060310    2.49015769650306
H          -6.52588271112013  -15.06197627462445    3.03926099781799
H          -8.28633366309581  -19.89419578341822    4.11259513344117
H         -13.10718964056854  -18.77742018171115    6.63858622098994
H          -9.77187033348000  -21.83228440577519    4.61070562666317
H         -11.67465579209738  -16.85458341190379    6.15554675656604
