# ORCA input file
# SCF done       -200.183780798941          0.000647539916
! CAM-B3LYP def2-SVP def2/J RIJCOSX Grid4 TightSCF
%maxcore 5000
%tddft
    Mode sTDDFT
    Ethresh 5.0
    maxcore 5000
end

%pal
  nprocs 6
  end
* xyz 0 1
   C       -3.22751         0.26292         6.95264
   C       -4.30236         0.56660         7.74042
   F       -4.28068         1.65712         8.51792
   C       -5.44385        -0.25974         7.74568
   F       -6.48309         0.06194         8.52802
   C       -5.49505        -1.37871         6.96229
   C       -4.40377        -1.71800         6.13946
   C       -3.24865        -0.88381         6.13374
   C       -2.14010        -1.20418         5.31635
   C       -2.18554        -2.32359         4.52819
   C       -3.34503        -3.14852         4.53918
   C       -4.42984        -2.86714         5.31791
   C       -3.14469        -4.27221         3.60723
   O       -3.93636        -5.16947         3.37775
   C       -1.81358        -4.08502         3.02077
   C       -1.21484        -2.89657         3.59712
   C        0.03200        -2.38377         3.34640
   C        0.98685        -2.92542         2.46074
   N        1.82048        -3.30075         1.76521
   C        0.54584        -1.22138         3.95951
   N        1.02455        -0.28453         4.41879
   C       -1.24232        -4.89300         2.07027
   C       -1.72792        -6.05080         1.44617
   C       -0.97826        -6.71752         0.47277
   C       -1.62814        -7.82926        -0.02193
   C       -2.89066        -8.04318         0.56718
   S       -3.27349        -6.84351         1.74104
   C       -3.51539        -9.17462         0.03712
   C       -2.74320        -9.81096        -0.94424
   S       -1.21855        -9.02319        -1.22708
   C       -3.34889       -10.93964        -1.49405
   C       -4.58699       -11.18084        -0.93686
   S       -5.01384        -9.99706         0.28423
   C       -5.47551       -12.24031        -1.26140
   C       -6.68702       -12.54436        -0.68145
   C       -7.27765       -13.66621        -1.26826
   C       -6.52031       -14.22168        -2.30558
   S       -5.05465       -13.35164        -2.55564
   C       -7.13646       -15.33950        -2.87434
   C       -8.36062       -15.63957        -2.26654
   S       -8.76217       -14.53155        -0.98427
   C       -8.99940       -16.75511        -2.81354
   C       -8.27187       -17.30878        -3.84334
   S       -6.77170       -16.44548        -4.14397
   C       -8.59633       -18.44124        -4.63702
   C       -7.87920       -18.94086        -5.70246
   C       -8.48583       -20.06919        -6.25444
   C       -9.67192       -20.44429        -5.61017
   S      -10.04270       -19.37671        -4.30535
   C      -10.24873       -21.58088        -6.18071
   C       -9.49955       -22.06115        -7.26920
   S       -8.07203       -21.11483        -7.58065
   C      -10.05199       -23.17724        -7.88083
   C      -11.22622       -23.58260        -7.26553
   S      -11.63163       -22.55671        -5.89442
   C      -12.04008       -24.70074        -7.54126
   C      -12.10253       -25.46511        -8.66991
   C      -12.66032       -26.84196        -8.57381
   O      -13.27438       -27.31149        -7.64419
   C      -12.24842       -27.51523        -9.82301
   C      -12.39521       -28.82376       -10.18208
   C      -11.88773       -29.25503       -11.42861
   C      -11.23284       -28.31781       -12.27935
   C      -10.72278       -28.75580       -13.51791
   C      -10.85843       -30.06223       -13.89541
   C      -11.50666       -30.98826       -13.05372
   C      -12.01139       -30.59448       -11.84611
   F      -11.62320       -32.26331       -13.44848
   F      -10.37364       -30.47645       -15.07334
   C      -11.10213       -26.96684       -11.88337
   C      -11.60801       -26.57078       -10.67463
   C      -11.64367       -25.26186       -10.02486
   C      -11.51403       -24.06059       -10.67398
   C      -11.80431       -22.81592       -10.08125
   N      -12.05826       -21.78264        -9.65073
   C      -11.15678       -23.93702       -12.03187
   N      -10.84987       -23.78115       -13.12688
   H       -2.36132         0.90603         6.96064
   H       -6.37626        -2.00079         6.97747
   H       -1.28298        -0.55110         5.33576
   H       -5.29582        -3.51133         5.30614
   H       -0.25662        -4.61108         1.72044
   H       -0.00620        -6.38329         0.15818
   H       -2.91487       -11.55764        -2.25851
   H       -7.11251       -11.97853         0.12691
   H       -9.94535       -17.14392        -2.48377
   H       -6.96485       -18.50171        -6.05697
   H       -9.59764       -23.69954        -8.70273
   H      -12.65083       -25.05746        -6.71719
   H      -12.89066       -29.52143        -9.52426
   H      -10.22706       -28.05900       -14.17563
   H      -12.50475       -31.31565       -11.21351
   H      -10.59478       -26.28060       -12.54264
*
