# ORCA input file
# SCF done       -231.289605111312          0.001057370866
! CAM-B3LYP def2-SVP def2/J RIJCOSX Grid4 TightSCF
%maxcore 5000
%tddft
    Mode sTDDFT
    Ethresh 5.0
    maxcore 5000
end

%pal
  nprocs 6
  end
* xyz 0 1
   C       -3.81154         4.67647       -18.58931
   C       -4.56795         3.94987       -19.46518
   F       -4.45070         4.15131       -20.78453
   C       -5.47777         2.98126       -18.99567
   F       -6.20578         2.28247       -19.87774
   C       -5.61790         2.75225       -17.65584
   C       -4.84975         3.48218       -16.72798
   C       -3.93074         4.46365       -17.20088
   C       -3.14778         5.20660       -16.28802
   C       -3.27615         4.96935       -14.94431
   C       -4.18872         3.98219       -14.48264
   C       -4.96381         3.25471       -15.33881
   C       -4.12564         3.89128       -13.00826
   O       -4.80404         3.16250       -12.31878
   C       -3.03397         4.81667       -12.60509
   C       -2.60505         5.54926       -13.78695
   C       -1.77687         6.63934       -13.80746
   C       -1.21014         7.24353       -12.66431
   N       -0.72980         7.79999       -11.78229
   C       -1.41370         7.32843       -14.98380
   N       -1.08129         7.92062       -15.90946
   C       -2.35683         4.79829       -11.42298
   C       -2.69749         4.09174       -10.22229
   C       -1.64681         3.57308        -9.44398
   C       -1.89204         2.78415        -8.34219
   C       -3.21136         2.53171        -7.98283
   C       -4.26834         3.11693        -8.70235
   C       -4.02396         3.89428        -9.80556
   C       -5.60143         2.72093        -8.10979
   C       -6.33493         3.94198        -7.54570
   C       -6.46913         2.00182        -9.14730
   C       -5.17175         1.77615        -7.01055
   C       -5.95612         1.00390        -6.18716
   C       -5.35187         0.11630        -5.29023
   C       -3.95696         0.07708        -5.20572
   C       -3.16127         0.86272        -6.01642
   C       -3.77040         1.69818        -6.94147
   C       -6.15835        -0.84026        -4.52317
   C       -7.28181        -1.41743        -5.12009
   C       -7.99938        -2.41713        -4.49283
   C       -7.57906        -2.85651        -3.24843
   C       -6.47378        -2.26298        -2.62013
   C       -5.77334        -1.25709        -3.24407
   C       -6.20951        -2.92022        -1.28174
   C       -4.77715        -3.44790        -1.18236
   C       -6.50128        -1.94311        -0.13636
   C       -7.22667        -4.04206        -1.28904
   C       -7.39078        -5.07109        -0.39009
   C       -8.39368        -6.01953        -0.61072
   C       -9.23470        -5.88835        -1.71737
   C       -9.06976        -4.86356        -2.62865
   C       -8.04938        -3.95005        -2.42226
   C       -8.53572        -7.20378         0.24594
   C       -9.80333        -7.67487         0.59619
   C       -9.96562        -8.86745         1.27309
   C       -8.83776        -9.60755         1.59758
   C       -7.55532        -9.11842         1.29857
   C       -7.40195        -7.92319         0.63543
   C       -6.49297       -10.09454         1.75353
   C       -5.58270       -10.51994         0.59893
   C       -5.66672        -9.50123         2.90073
   C       -7.33678       -11.24618         2.25264
   C       -6.93467       -12.48002         2.69375
   C       -7.89816       -13.42001         3.09922
   C       -9.25863       -13.08319         3.02087
   C       -9.66653       -11.84936         2.56390
   C       -8.70427       -10.92414         2.18069
   C       -7.46508       -14.73451         3.47675
   C       -8.09963       -15.68379         4.21102
   C       -7.68474       -17.10700         4.06794
   O       -6.66510       -17.52034         3.56688
   C       -8.81581       -17.89304         4.60459
   C       -9.02152       -19.24150         4.55803
   C      -10.21757       -19.77219         5.09125
   C      -11.17618       -18.89179         5.67237
   C      -12.37187       -19.42813         6.19151
   C      -12.60619       -20.77324         6.13326
   C      -11.65835       -21.64246         5.55676
   C      -10.48748       -21.15410         5.04872
   F      -11.91704       -22.95675         5.50855
   F      -13.74559       -21.28016         6.62327
   C      -10.92935       -17.50044         5.71871
   C       -9.76592       -17.00852         5.19028
   C       -9.25268       -15.64479         5.08806
   C       -9.64119       -14.58700         5.86597
   C       -8.96182       -13.35073         5.88491
   N       -8.41354       -12.34634         5.96701
   C      -10.71036       -14.64303         6.78217
   N      -11.58491       -14.64366         7.52562
   H       -3.12115         5.41512       -18.96579
   H       -6.31771         2.00673       -17.31186
   H       -2.45623         5.93703       -16.67601
   H       -5.64995         2.51207       -14.96051
   H       -1.39553         5.30009       -11.39761
   H       -0.62841         3.76424        -9.75164
   H       -1.07530         2.36371        -7.77499
   H       -4.83088         4.36618       -10.34029
   H       -6.60786         4.61938        -8.35084
   H       -5.69833         4.47459        -6.84202
   H       -7.23982         3.63175        -7.02833
   H       -6.61846         2.63479       -10.01770
   H       -7.43834         1.75019        -8.72226
   H       -5.98081         1.08600        -9.47372
   H       -7.03294         1.07118        -6.23331
   H       -3.49134        -0.61697        -4.52185
   H       -2.08504         0.80226        -5.95111
   H       -7.56797        -1.10783        -6.11421
   H       -8.85291        -2.86596        -4.97872
   H       -4.92856        -0.78973        -2.75929
   H       -4.06708        -2.62605        -1.23607
   H       -4.57248        -4.13884        -1.99762
   H       -4.63031        -3.96804        -0.23875
   H       -5.81829        -1.09779        -0.17879
   H       -6.38370        -2.44086         0.82344
   H       -7.52050        -1.56982        -0.21118
   H       -6.75948        -5.15417         0.48300
   H       -9.99999        -6.63200        -1.88476
   H       -9.71039        -4.79128        -3.49479
   H      -10.67136        -7.09051         0.32831
   H      -10.95242        -9.22479         1.52648
   H       -6.42111        -7.55849         0.36721
   H       -5.03269        -9.66352         0.21680
   H       -6.17294       -10.94289        -0.21133
   H       -4.86802       -11.26676         0.93569
   H       -5.12447        -8.62298         2.55842
   H       -4.95183       -10.23365         3.26728
   H       -6.31804        -9.21269         3.72249
   H       -5.88812       -12.74207         2.74773
   H      -10.00095       -13.82745         3.26982
   H      -10.71752       -11.61404         2.49016
   H       -6.52588       -15.06198         3.03926
   H       -8.28633       -19.89420         4.11260
   H      -13.10719       -18.77742         6.63859
   H       -9.77187       -21.83228         4.61071
   H      -11.67466       -16.85458         6.15555
*
