93
 SCF done       -200.183780798941          0.000647539916
C          -3.22751416022525    0.26292328081444    6.95263715261392
C          -4.30236393330297    0.56660438283709    7.74041609133653
F          -4.28068142398424    1.65712299662444    8.51791689296641
C          -5.44384905426470   -0.25973613609040    7.74567854279508
F          -6.48308966691620    0.06193977727125    8.52802297738178
C          -5.49505419980075   -1.37871074967413    6.96228932007762
C          -4.40377299590467   -1.71800146679937    6.13945673555284
C          -3.24864720976076   -0.88380579819235    6.13373912630430
C          -2.14009926141276   -1.20418030231422    5.31634874403377
C          -2.18554057017003   -2.32359298223670    4.52818576867992
C          -3.34503387561916   -3.14851872833290    4.53917838194402
C          -4.42983672605500   -2.86713903431887    5.31791000891929
C          -3.14469021489646   -4.27221395709326    3.60722581397012
O          -3.93636409581651   -5.16946516101570    3.37775157443791
C          -1.81357566095562   -4.08501850202791    3.02077334746800
C          -1.21484486519710   -2.89657419492608    3.59711525730926
C           0.03199500077553   -2.38377027585634    3.34639668690826
C           0.98684542744053   -2.92542377111831    2.46073858334296
N           1.82048012564437   -3.30074780607857    1.76521431382358
C           0.54583999807919   -1.22137641426754    3.95951163368743
N           1.02454799709584   -0.28452801142873    4.41878656911737
C          -1.24232168093468   -4.89299608869854    2.07027253405736
C          -1.72792435198204   -6.05079965449659    1.44616619014462
C          -0.97825952796542   -6.71752406078730    0.47276997410746
C          -1.62814275153228   -7.82925788982906   -0.02192948468335
C          -2.89065528687097   -8.04317577200279    0.56717871327400
S          -3.27349309795175   -6.84351419646130    1.74104239373992
C          -3.51539220134321   -9.17461692220052    0.03712191616239
C          -2.74319585873393   -9.81096162864899   -0.94423658737448
S          -1.21855425971980   -9.02319335724322   -1.22708202141821
C          -3.34888629327483  -10.93963898165712   -1.49405444111541
C          -4.58698700322755  -11.18083775016003   -0.93686434737018
S          -5.01384294496287   -9.99705528389135    0.28422757721821
C          -5.47550725437913  -12.24030772694511   -1.26140240217287
C          -6.68702407717174  -12.54436078860941   -0.68145264159953
C          -7.27764866015336  -13.66621154502447   -1.26825756174599
C          -6.52031151878101  -14.22168302091667   -2.30558179022376
S          -5.05464947578908  -13.35163983786612   -2.55564250385260
C          -7.13646137219397  -15.33950260976697   -2.87434040720641
C          -8.36062164105552  -15.63956831978753   -2.26653905851587
S          -8.76217169417092  -14.53155245126340   -0.98427461602315
C          -8.99940430060018  -16.75511296004554   -2.81353711651565
C          -8.27186644219205  -17.30877844031916   -3.84333876734263
S          -6.77170466058582  -16.44548269291275   -4.14397455884609
C          -8.59632996329809  -18.44124111224798   -4.63701673874092
C          -7.87920323369385  -18.94085705384255   -5.70245855637927
C          -8.48583083987863  -20.06919363906440   -6.25443555056423
C          -9.67192443356242  -20.44429280039595   -5.61017310381278
S         -10.04269755762730  -19.37670811393167   -4.30535314742512
C         -10.24873105674833  -21.58088205086687   -6.18071204952312
C          -9.49954948655547  -22.06115163770940   -7.26919961347118
S          -8.07202993537465  -21.11483213831968   -7.58064720372093
C         -10.05199062179796  -23.17723982733835   -7.88082698899277
C         -11.22622107094588  -23.58259654158595   -7.26553159905473
S         -11.63162686573326  -22.55671396763738   -5.89441717042334
C         -12.04007508074543  -24.70073522630788   -7.54125610299501
C         -12.10252912479097  -25.46511395718236   -8.66991275127489
C         -12.66032385940410  -26.84196254638864   -8.57381230127351
O         -13.27437766453709  -27.31148945916562   -7.64419498146119
C         -12.24841940826489  -27.51523360840616   -9.82301443303475
C         -12.39520725530344  -28.82375804687005  -10.18207511846921
C         -11.88773260969750  -29.25502614284462  -11.42860693466632
C         -11.23284050139595  -28.31780979393340  -12.27934525032848
C         -10.72278218001411  -28.75580333704477  -13.51791415528196
C         -10.85843306438795  -30.06222552382053  -13.89541260748676
C         -11.50666443382121  -30.98825746793711  -13.05371934604696
C         -12.01138976697334  -30.59448239679647  -11.84611217583961
F         -11.62319944324860  -32.26331134446558  -13.44848477177743
F         -10.37363633279347  -30.47644947313312  -15.07333714657497
C         -11.10213174912794  -26.96683715719335  -11.88336854957485
C         -11.60800734359688  -26.57077785730739  -10.67462975408103
C         -11.64366836545734  -25.26186135789065  -10.02485742200612
C         -11.51403236328964  -24.06059327606018  -10.67397706226822
C         -11.80430791561218  -22.81591703695247  -10.08124599510820
N         -12.05825899374918  -21.78264089349085   -9.65072717837126
C         -11.15677536084312  -23.93701644957519  -12.03186738867460
N         -10.84986530778237  -23.78115117833845  -13.12688205496237
H          -2.36131915437365    0.90602538698167    6.96064484616497
H          -6.37625592404444   -2.00078655811537    6.97746830406169
H          -1.28298279634674   -0.55110266802494    5.33576242489030
H          -5.29582464597188   -3.51133487467449    5.30614083464349
H          -0.25662333520212   -4.61108379768922    1.72044420303059
H          -0.00619946107014   -6.38329104747132    0.15818356430347
H          -2.91486701004114  -11.55763630395287   -2.25850788005228
H          -7.11250538452632  -11.97853364606385    0.12690933646364
H          -9.94535052617342  -17.14392269887751   -2.48376792130028
H          -6.96485467134324  -18.50171191223075   -6.05697096680420
H          -9.59764378636524  -23.69953628781903   -8.70272683540109
H         -12.65082627717713  -25.05745537633243   -6.71718706577991
H         -12.89065920358929  -29.52142714704421   -9.52426486847429
H         -10.22706410094637  -28.05899868851121  -14.17563450155062
H         -12.50474779873363  -31.31565462961084  -11.21350526979156
H         -10.59477701480151  -26.28060250464967  -12.54263751744082
