105
 SCF done       -210.276459027065          0.000437220527
C           3.65659508821500   -1.11294769349014    3.11884108325433
C           4.80199266782557   -0.76541575563649    2.45932882051369
F           5.64461775165977    0.12803153615226    2.99690914096616
C           5.11258250816655   -1.33892717564179    1.21065118146772
F           6.24324057037690   -0.97933712298455    0.58517497527364
C           4.27376294950920   -2.25389440400860    0.63888589813362
C           3.08679907130397   -2.63377167029728    1.29449309205209
C           2.76983735504868   -2.05263828493955    2.55600517163072
C           1.58160372501582   -2.41570275883420    3.23141396443958
C           0.74000308241827   -3.33549855166511    2.66425191470169
C           1.07129836258869   -3.91888026596009    1.41214990587808
C           2.20557936742120   -3.58369630282415    0.73177776193201
C           0.03100550825340   -4.89651654189362    1.03241179027817
O           0.01831936970409   -5.52842923016466   -0.00754689202553
C          -0.92223514381831   -4.92636505438130    2.15780500818859
C          -0.53220163725458   -3.90023510313254    3.10783323853747
C          -1.23909806300521   -3.46341637964194    4.19980105051505
C          -2.51685530440024   -3.90850608080129    4.59952403748718
N          -3.56150949634308   -4.18735263537100    4.98826738871125
C          -0.79163648176552   -2.44786372364887    5.07028065273867
N          -0.48538425279799   -1.63368225896338    5.81996919052707
C          -1.94550164184790   -5.81519821540688    2.39624133234454
C          -2.46599160454108   -6.86420482455776    1.62824966421073
C          -2.21286990069570   -7.28285432936964    0.32612728422956
C          -2.96327574070421   -8.39552395744472   -0.01159048120759
C          -3.81934739024243   -8.85500265229068    1.03027112249346
S          -3.68800908830832   -7.87601077385472    2.43162336762045
C          -4.47392968797026   -9.97615093182460    0.53538835621284
C          -4.00848050375179  -10.17361765282935   -0.78724560558501
N          -3.09119241695810   -9.21328969766778   -1.10519267508421
C          -2.41353245656745   -9.06370920145978   -2.36306512621382
C          -4.56874780652526  -11.28791683912958   -1.41472688949730
C          -5.45268373094923  -11.94730135768162   -0.58543316364889
S          -5.61656422892538  -11.18680438789708    0.99299637759709
C          -6.17716269794165  -13.13129685798747   -0.87450796138002
C          -7.03077044025718  -13.81774836489436   -0.03712136434054
C          -7.53730236649978  -14.96779214893242   -0.64721413158150
C          -7.06635301527661  -15.15995972611131   -1.96609642857420
S          -5.99464281878965  -13.90018717956464   -2.44974221046907
C          -7.63399619022841  -16.34595907819847   -2.42467943707153
C          -8.43464615130299  -16.84562319626253   -1.37276310530155
N          -8.37977280139134  -15.99110505863317   -0.30451076590774
C          -9.02000397430411  -16.18014611037373    0.96738401541773
C          -9.05861238833199  -18.05853724420068   -1.67488587529300
C          -8.74438618290229  -18.48933590508075   -2.94619415922621
S          -7.66795947671143  -17.38520080782184   -3.79918743522288
C          -9.16648583718495  -19.68538564124602   -3.58039664102604
C          -8.84493984665348  -20.11325011651851   -4.85155365037911
C          -9.41259378005707  -21.35748266981698   -5.13556448039018
C         -10.17531803373851  -21.88528250082279   -4.06576022679483
S         -10.19117789944957  -20.82028602578761   -2.70857698111292
C         -10.64813002678127  -23.12290213508222   -4.48294729761519
C         -10.17022722766726  -23.31526953023654   -5.80535728980192
N          -9.42962351574417  -22.22701073303240   -6.18900734361730
C          -8.72789530306058  -22.08760627250446   -7.43463128459899
C         -10.57049535872748  -24.51874445341093   -6.36931185957575
C         -11.30858244180861  -25.28838458216806   -5.48077711784190
S         -11.57254126145911  -24.46473418512714   -3.93875151004617
C         -11.87740212439232  -26.54553121611694   -5.76326123642689
C         -12.33851393224568  -27.49103871587980   -4.89195941111489
C         -13.33695818100668  -28.49174371688073   -5.34050655110969
O         -13.66659157574935  -28.73494775413326   -6.47981907118223
C         -13.88166120816997  -29.07676174696067   -4.09513317993946
C         -14.91007453514290  -29.95971944735303   -3.93848244479823
C         -15.27922132120323  -30.36012309953801   -2.63403472921898
C         -14.57493233078791  -29.83157540309427   -1.51362512655887
C         -14.95456740191937  -30.22918880352982   -0.21609798198182
C         -15.98190730767318  -31.11276963395028   -0.03898431873679
C         -16.67582031027244  -31.63677247778219   -1.14734136461802
C         -16.33296638590114  -31.26929302825877   -2.41827809733378
F         -17.68036090831691  -32.50167476090976   -0.94422709377305
F         -16.34052522182463  -31.49018303062180    1.19643397958494
C         -13.50654480670473  -28.92568600548885   -1.70726297280436
C         -13.16260238627259  -28.55929889981077   -2.97986387245313
C         -12.10051867476837  -27.69166699723042   -3.48203494445543
C         -10.94524076664590  -27.38493884369544   -2.80816037583476
C          -9.81589072347605  -26.82574250846964   -3.44002113545107
N          -8.86241371522171  -26.42538597937906   -3.93923883428223
C         -10.72663511357011  -27.68861183549646   -1.45111618732265
N         -10.51024859242896  -27.90300143273024   -0.34400843286772
H           3.43292081395549   -0.66317417101415    4.07359749870313
H           4.52606248484442   -2.68465714536809   -0.31745755290713
H           1.37354798827008   -1.95924842152960    4.18524440080952
H           2.42934397427472   -4.04012195249475   -0.22053097198036
H          -2.42514444246869   -5.72589555044242    3.36410124205982
H          -1.50532624237598   -6.77988998857996   -0.30603317846906
H          -2.13875925792773  -10.04450229998293   -2.75174140909314
H          -1.51229612596450   -8.47197109068655   -2.21436014131325
H          -3.05163674255492   -8.56024323200448   -3.09500089842879
H          -4.35553546237822  -11.61933773239494   -2.41453487235730
H          -7.24929151773383  -13.48690439607382    0.96195419129848
H          -9.97873057467857  -16.67662824688864    0.82181836617496
H          -9.18821663834649  -15.21133685903195    1.43506326098726
H          -8.40341094974379  -16.79193701592667    1.63250907039117
H          -9.70049385872535  -18.61645145144325   -1.01766598190242
H          -8.22283896009882  -19.53798512267618   -5.51278375235080
H          -9.37655499922755  -22.38417772990181   -8.25987900808316
H          -7.83145216071429  -22.71369357120299   -7.44882975974035
H          -8.43642640091811  -21.04787352169663   -7.56738735967388
H         -10.31522964483846  -24.86435044462228   -7.35438466890711
H         -12.04704185584387  -26.76153655498046   -6.81395160673971
H         -15.43618593876042  -30.34864986686521   -4.79698092531339
H         -14.43078541127565  -29.84026345442154    0.64308739437204
H         -16.87438312649476  -31.67934655903315   -3.25640929429858
H         -12.99170918924969  -28.53504747975633   -0.84382805818252
