162
 SCF done       -302.374070609531          0.000715983363
C          -3.11931373916631    2.04430397503124   -2.21725518193004
C          -1.84920132249335    2.51561165556037   -2.03793576731636
F          -1.50618690258020    3.72341998194959   -2.50630145300797
C          -0.88559824794577    1.74112083317305   -1.36181090861624
F           0.35344348432724    2.22755266829454   -1.20163465413470
C          -1.20588325131770    0.50551537948475   -0.87376910791094
C          -2.50602958246505   -0.00854677514212   -1.04345414270369
C          -3.48177893335909    0.77361852056899   -1.72673193374704
C          -4.79280033371090    0.27757224114027   -1.91113244514845
C          -5.11424710125347   -0.96485530872248   -1.43163269901226
C          -4.13256740679994   -1.74080611753289   -0.75828361796393
C          -2.86180208746361   -1.28604837279188   -0.55691689953316
C          -4.71261770697945   -3.04209180830610   -0.36460585255332
O          -4.15374434533037   -3.88319508276824    0.30697016318142
C          -6.06973087383989   -3.06538890703213   -0.95794137482032
C          -6.35179743751248   -1.73676570812264   -1.47892159242324
C          -7.57007634576621   -1.25054614705366   -1.87386454158215
C          -7.77318392656377    0.06194921323017   -2.34972470597691
N          -7.99870501614135    1.11406043352173   -2.74987157797807
C          -8.79309248246395   -1.95298238977200   -1.81205851922110
N          -9.83208052801657   -2.44017070137757   -1.76999263707321
C          -6.88626638119396   -4.14162096133552   -1.17776202025836
C          -6.75549096545802   -5.49543727557094   -0.80388279907269
C          -5.92022903348574   -6.13372160355765    0.08309014227162
C          -6.09907552878933   -7.52771982146098    0.13125722672209
C          -5.41171638754842   -8.45914385584059    0.94651171818684
C          -4.35228501152403   -8.07709917445522    1.85306007265768
C          -4.09581756436077   -8.58673972431282    3.09839716273177
C          -2.95524193756889   -8.02895081376919    3.70286784571694
C          -2.32270768473591   -7.10938046042371    2.92075455420623
S          -3.14428788272360   -6.90096984588749    1.41366084490404
C          -1.09610135067325   -6.32655799662805    3.22142092465126
C          -5.78697690399480   -9.78898594126410    0.80588086944986
C          -6.78794468358054  -10.23075641764524   -0.09509833844518
C          -7.51722835181292   -9.29789262329769   -0.86147398133434
C          -7.13339200934663   -7.96745694281153   -0.74074108699248
S          -7.85023786445029   -6.63286051966527   -1.58772322827481
C          -8.61073402064035   -9.72428212814165   -1.70847154531258
C          -9.56541767869044  -10.66366481807754   -1.43222419959243
C         -10.50269534318966  -10.82805811345768   -2.47044295969489
C         -10.26820111972559  -10.02525260439109   -3.54405094950374
S          -8.87367982734464   -9.02914317612563   -3.28425208550692
C         -11.03815573519548   -9.92407848283135   -4.81067350825519
C          -6.86039161656271  -11.64243004471005   -0.15086910494428
C          -5.98253943277414  -12.27105344934663    0.68408669844680
S          -5.02532206981598  -11.13667778339571    1.61216157845029
C          -5.76657428385428  -13.67149263715183    0.82704495717016
C          -4.94618281410229  -14.30128548295430    1.71606048011771
C          -4.91039923931289  -15.70814025394649    1.56044432150381
C          -4.13229515525987  -16.63724805740481    2.28128663613493
C          -3.38374842091658  -16.23072618803951    3.45099292987753
C          -3.77644384153671  -15.36543091615220    4.43453095478129
C          -2.81467211542024  -15.20029480951882    5.45007791469609
C          -1.68368603980094  -15.92957652904073    5.24841464949855
S          -1.79198882763830  -16.85478651993471    3.78591685872175
C          -0.46742095959501  -16.00649445328637    6.09863223540079
C          -4.14672229659190  -17.94529043939605    1.81156174341972
C          -4.92822583058964  -18.37182936063894    0.70840748550400
C          -5.75836846568561  -17.45585890401675    0.03065435967566
C          -5.72045002879439  -16.14080795874763    0.48328517530518
S          -6.56505050427241  -14.80118790158983   -0.24825702789452
C          -6.58997869555797  -17.82673811347713   -1.09564239128681
C          -7.84558279631701  -17.37378074522670   -1.39056378949517
C          -8.36044707070622  -17.89229386832807   -2.59497081421291
C          -7.50143341203654  -18.72902592150147   -3.23710920536673
S          -6.02602566574818  -18.90487088657713   -2.34478453800414
C          -7.69369512035731  -19.45120083896304   -4.52148833584822
C          -4.76737707256942  -19.75562006095117    0.45753309931894
C          -3.90016017948359  -20.37134703825402    1.31095798017587
S          -3.24432979564030  -19.26747054207402    2.50007688957753
C          -3.48181664317475  -21.73251385875837    1.29287965194972
C          -2.65850047092709  -22.36197071881884    2.18063972289692
C          -2.39485996837240  -23.71213656611388    1.85291448252576
C          -1.62054552964906  -24.64159008402411    2.57712128404139
C          -0.92346537735122  -24.27120778050508    3.79186832197786
C          -0.20311768073343  -23.14075522234141    4.05574940894397
C           0.33137306419360  -23.11334946038598    5.35952184469130
C           0.01687010562212  -24.21219749799978    6.09819701985449
S          -0.94534783789893  -25.32530615820862    5.18218612053772
C           0.37877678998475  -24.52126130810253    7.50548601700600
C          -1.58572778345965  -25.93340300330460    2.07246567064704
C          -2.27141984151171  -26.34398185485990    0.90028594286570
C          -3.04360148153553  -25.41065104969178    0.17165922509332
C          -3.06776562598992  -24.11233786200660    0.67136896846712
S          -3.98399039316239  -22.79119018144003   -0.00604995868389
C          -3.78533461251713  -25.76504732820793   -1.01813490091858
C          -3.97327402139547  -25.01213886796597   -2.14565269942814
C          -4.79220009979583  -25.63656108035586   -3.10480284754668
C          -5.24978565503261  -26.85875622001629   -2.71612463623224
S          -4.65551394974157  -27.27137393421477   -1.14253110967511
C          -6.13311465505146  -27.79584104403340   -3.45693799932202
C          -2.01998929599113  -27.69819353823349    0.59948234596711
C          -1.21865096311307  -28.33598614363880    1.51382977216694
S          -0.66834362862292  -27.23686431869847    2.76411221026400
C          -0.78986528155861  -29.68420029357761    1.44127511340383
C          -0.22522141174715  -30.44646948098876    2.41653990197200
C           0.59331352661307  -31.63280219339158    2.05306973685347
O           0.62208581571076  -32.20181338011018    0.98646965502588
C           1.41030179652466  -31.91408189720492    3.25407345732690
C           2.41868126261797  -32.82021784297944    3.41167698134623
C           3.08890451612815  -32.89355714623979    4.65368003491313
C           2.70007189747321  -32.02130705420395    5.71170368050301
C           3.37776842117295  -32.09667810865089    6.94518985774755
C           4.39141952229279  -32.99599682160112    7.12092658472498
C           4.77447077192171  -33.85836831029354    6.07454642058645
C           4.13745869213447  -33.80962495350720    4.86646455962623
F           5.77360984262647  -34.72975360568777    6.27458453093038
F           5.03393244813283  -33.06565480333958    8.29524600603561
C           1.64560443576828  -31.09895482199776    5.52274185830581
C           1.00803196123263  -31.04933967703804    4.31253576170113
C          -0.11966516208758  -30.24828277539500    3.84729653992228
C          -1.05786401407660  -29.65088974454295    4.64693138967947
C          -2.30550518738972  -29.20536627977948    4.15802836468768
N          -3.35625675601816  -28.90783281622254    3.80539432427302
C          -0.91836919315658  -29.50184822143672    6.04010369240703
N          -0.83156716037718  -29.33460221032889    7.17263740527321
H          -3.84523945382553    2.65068931526614   -2.73606938677992
H          -0.45665727686498   -0.07551655268241   -0.35916168884155
H          -5.50625550708463    0.89028257376673   -2.43790410837987
H          -2.13653651329994   -1.89598486560998   -0.04006103081851
H          -7.75709190584401   -3.95776418299717   -1.79757143321953
H          -5.20805986708544   -5.59731388591547    0.68019162613030
H          -4.72983651883624   -9.30672210983766    3.58363531070448
H          -2.61410452539507   -8.30060916095010    4.68607231609477
H          -0.74554747376523   -6.55238065551181    4.22566410947424
H          -1.29828017947863   -5.25847297096503    3.14850624117517
H          -0.30423206352220   -6.56396674555788    2.51101700209717
H          -9.62042864154690  -11.18864986319223   -0.49524584618745
H         -11.32620433301544  -11.51820772168101   -2.41941728457309
H         -11.84457840020002  -10.65348485946476   -4.81507428191615
H         -10.39305739170942  -10.10496545895523   -5.66985943507097
H         -11.46546463471818   -8.92746732445637   -4.92018324414388
H          -7.50997999364523  -12.18292687547232   -0.81519636804932
H          -4.35448861730689  -13.76304030855739    2.43427086267651
H          -4.74370468577689  -14.89584527503358    4.45252647344455
H          -2.96061517128055  -14.56282668873999    6.30415848374326
H          -0.56774626162578  -15.34025875218676    6.95206399800564
H           0.41824171557920  -15.72224000796617    5.53123158370617
H          -0.31737240408396  -17.02296474971313    6.46200710184341
H          -8.40190810214365  -16.71793893452471   -0.74558541959924
H          -9.33813888538924  -17.64975185904054   -2.97192973703201
H          -8.67625973778264  -19.22682884991011   -4.92962605360975
H          -7.61071244845185  -20.52779506782209   -4.37378165502279
H          -6.93562745939564  -19.15565232959685   -5.24670199179063
H          -5.27311920775450  -20.29184483496567   -0.32437631719966
H          -2.27382495745505  -21.87179977436602    3.05618526425961
H          -0.02394570741416  -22.37130959329095    3.32597367098049
H           0.93103835184889  -22.30284210790067    5.73452587955920
H           1.07006273731552  -23.77324489697483    7.88633121673243
H           0.84193487159289  -25.50436406641355    7.57662842127247
H          -0.51063923305252  -24.53012960072997    8.13576277506797
H          -3.50655112000548  -24.05665547154912   -2.30223860975154
H          -5.03485914445627  -25.19176567024964   -4.05348321727761
H          -6.40963628391460  -27.36584633432294   -4.41655688515065
H          -7.03966992754587  -28.00103712619810   -2.88814335724296
H          -5.62829722953868  -28.74612504241135   -3.62951848507712
H          -2.42849139491224  -28.21124427819700   -0.25184695793670
H          -0.84038639356506  -30.14167926960325    0.45810343554059
H           2.70298796726215  -33.47239832027238    2.59992840929840
H           3.09465333890035  -31.44602032271432    7.75777759066537
H           4.44254221952635  -34.47661668940140    4.07540328281989
H           1.37200176588094  -30.44562948992423    6.33605107392911
