# ORCA input file
# SCF done       -233.367487981913          0.000985829535
! CAM-B3LYP def2-SVP def2/J RIJCOSX Grid4 TightSCF
%maxcore 5000
%tddft
    Mode sTDDFT
    Ethresh 5.0
    maxcore 5000
end

%pal
  nprocs 6
  end
* xyz 0 1
   C        2.12386        -2.73373         8.02597
   C        2.63464        -3.25207         9.18310
   F        3.45910        -2.51976         9.94231
   C        2.30275        -4.55956         9.59177
   F        2.81824        -5.04172        10.72998
   C        1.46447        -5.33123         8.83670
   C        0.92338        -4.82562         7.63887
   C        1.25708        -3.50353         7.22466
   C        0.72652        -2.97427         6.02518
   C       -0.10958        -3.74452         5.26082
   C       -0.43217        -5.06498         5.68184
   C        0.05962        -5.60283         6.83600
   C       -1.32355        -5.68121         4.68746
   O       -1.80151        -6.80218         4.74404
   C       -1.50950        -4.68755         3.62604
   C       -0.79342        -3.47975         3.99577
   C       -0.75979        -2.29000         3.31696
   C       -1.43938        -2.00759         2.11291
   N       -1.96265        -1.69840         1.13868
   C       -0.03645        -1.15714         3.74779
   N        0.52858        -0.20287         4.04334
   C       -2.19897        -4.89379         2.45692
   C       -2.88187        -6.02862         1.99553
   C       -3.45994        -6.07290         0.71901
   C       -4.04908        -7.29140         0.44584
   C       -3.93999        -8.19167         1.53404
   S       -3.10691        -7.54530         2.86938
   C       -4.53675        -9.41451         1.14801
   C       -5.01479        -9.30105        -0.17039
   C       -4.73575        -7.95679        -0.65151
   C       -5.04501        -7.44109        -1.87499
   C       -5.71214        -8.20344        -2.85745
   N       -6.25282        -8.82833        -3.65219
   C       -4.71729        -6.11776        -2.24066
   N       -4.45102        -5.04540        -2.54507
   C       -5.57837       -10.48350        -0.64738
   C       -5.53557       -11.49239         0.29935
   S       -4.79926       -10.96824         1.80626
   C       -5.95040       -12.84028         0.15595
   C       -5.92950       -13.82593         1.12674
   C       -6.32897       -15.06160         0.62276
   C       -6.65643       -15.01690        -0.74430
   S       -6.49197       -13.44908        -1.40193
   C       -6.97900       -16.32939        -1.17356
   C       -6.85792       -17.20117        -0.07654
   C       -6.46401       -16.43112         1.09237
   C       -6.25447       -16.89620         2.35660
   C       -6.41289       -18.25879         2.68812
   N       -6.53745       -19.36674         2.95458
   C       -5.86499       -16.04446         3.41227
   N       -5.54751       -15.35259         4.26922
   C       -7.09087       -18.53297        -0.41196
   C       -7.38339       -18.68415        -1.75587
   S       -7.39376       -17.14922        -2.61343
   C       -7.58838       -19.90042        -2.45404
   C       -7.84954       -20.07234        -3.80277
   C       -7.90300       -21.41998        -4.15330
   C       -7.68495       -22.27964        -3.06120
   S       -7.42868       -21.42892        -1.60273
   C       -7.70521       -23.61772        -3.52250
   C       -7.93309       -23.60306        -4.91499
   C       -8.08863       -22.22612        -5.35062
   C       -8.37193       -21.79469        -6.61280
   C       -8.53689       -22.70499        -7.67863
   N       -8.65787       -23.45865        -8.53408
   C       -8.50966       -20.42567        -6.92451
   N       -8.61767       -19.30958        -7.16276
   C       -7.95062       -24.87280        -5.47346
   C       -7.74361       -25.86744        -4.52584
   S       -7.50451       -25.19275        -2.91581
   C       -7.62798       -27.26073        -4.70324
   C       -7.97440       -28.02896        -5.77543
   C       -7.33671       -29.36960        -5.91577
   O       -6.71061       -29.96154        -5.06795
   C       -7.58369       -29.77122        -7.31401
   C       -7.09809       -30.84944        -7.99590
   C       -7.43819       -31.00941        -9.35794
   C       -8.27331       -30.04196        -9.98919
   C       -8.59901       -30.20221       -11.35093
   C       -8.12082       -31.27354       -12.05202
   C       -7.29608       -32.23025       -11.42641
   C       -6.96135       -32.10242       -10.10749
   F       -6.84000       -33.26904       -12.13866
   F       -8.43173       -31.42498       -13.34555
   C       -8.76795       -28.93951        -9.25483
   C       -8.43355       -28.81127        -7.93367
   C       -8.80433       -27.80647        -6.93873
   C       -9.90606       -26.99455        -7.02157
   C      -10.36953       -26.19472        -5.95969
   N      -10.78355       -25.54564        -5.10785
   C      -10.75589       -26.93901        -8.14653
   N      -11.47966       -26.86326        -9.03337
   H        2.38811        -1.73096         7.72847
   H        1.22016        -6.33014         9.16263
   H        1.00121        -1.97140         5.74188
   H       -0.20441        -6.60734         7.12984
   H       -2.21411        -4.07604         1.74645
   H       -3.42132        -5.23531         0.04493
   H       -5.99513       -10.62261        -1.62884
   H       -5.62613       -13.63802         2.14103
   H       -7.04054       -19.36261         0.27020
   H       -7.97964       -19.24849        -4.48157
   H       -8.05117       -25.07567        -6.52381
   H       -7.11636       -27.79960        -3.91092
   H       -6.46066       -31.56865        -7.50456
   H       -9.23149       -29.48075       -11.84412
   H       -6.32874       -32.84280        -9.64342
   H       -9.38785       -28.21555        -9.75920
*
