162
 SCF done       -326.674919435037          0.000468658411
C         -10.96138946679759    1.79983125394811   -3.61270574060241
C         -11.43679025990958    2.03934435250104   -4.87134031331248
F         -11.90109769495455    3.25282177296753   -5.19624074191837
C         -11.44580358600316    1.01696118958147   -5.84150461174295
F         -11.91878596182998    1.27987249389947   -7.06712223833497
C         -10.97810466315488   -0.23113445475720   -5.53940286192483
C         -10.48145797979543   -0.50904420676803   -4.25119416829113
C         -10.47269817720698    0.52327080249623   -3.26889148046594
C          -9.98191598318408    0.26764562806648   -1.96807153186379
C          -9.51443696025417   -0.98262331960025   -1.65762747620839
C          -9.52675627202125   -2.00544790742510   -2.64591204875008
C          -9.99294344803916   -1.78960990937491   -3.91036754932211
C          -8.98178513080717   -3.24738811083626   -2.06770077339086
O          -8.83533636080532   -4.30409013691818   -2.64921400552429
C          -8.66144815323480   -2.93566908976682   -0.66369550838304
C          -8.96373610068153   -1.53519758702939   -0.42214077989473
C          -8.76922382836613   -0.82855478260621    0.73616303934137
C          -9.08840862126785    0.53761067630658    0.89060836615455
N          -9.32487750708375    1.64410296345410    1.08419549915862
C          -8.22240770329324   -1.33248311082205    1.93517073957962
N          -7.78687258931441   -1.65587925916446    2.94771187423825
C          -8.19264235595173   -3.81900183478201    0.26944401711121
C          -7.88341240041127   -5.19004591057287    0.16317142449370
C          -7.46882676688851   -5.92188143603011    1.26319332590561
C          -7.21302913754597   -7.27266031636491    0.99097235584293
C          -6.76767857715196   -8.27798592531623    1.88578915496594
C          -6.64126710046337   -8.01386389988197    3.30202103621058
C          -7.48211542922308   -7.28791311690899    4.09931930126511
C          -7.05459985083700   -7.24209716735037    5.44240784077395
C          -5.89092038579460   -7.91468038199002    5.68640545784128
S          -5.30804781154064   -8.64401373674181    4.23072614310328
C          -5.16958611381369   -8.07435844851495    6.97404946460130
Cl         -7.93089485171900   -6.40345665811732    6.66405373325083
C          -6.48894768194036   -9.51608125790461    1.32771215716475
C          -6.66172747215796   -9.80674305873642   -0.05217612725457
C          -7.12657049730338   -8.81306011074632   -0.93500345442363
C          -7.40521083137653   -7.56479102137630   -0.38610266669100
S          -7.95495390235382   -6.17843766380423   -1.28043746697099
C          -7.29614676324203   -9.08662080281180   -2.34804754636700
C          -6.46985847017519   -9.79319795519484   -3.17502456559241
C          -6.96099736973910   -9.86922510236486   -4.49570034335813
C          -8.15313008660750   -9.23440973874033   -4.69223138612240
S          -8.69163471314553   -8.51041423598536   -3.21592896461723
C          -8.95348732583758   -9.12119673033893   -5.93750206999899
Cl         -6.11314868530610  -10.70257783652630   -5.74242318268641
C          -6.37260693345265  -11.16056947640351   -0.34178556754386
C          -5.98767090496608  -11.88567332838655    0.74812228789892
S          -5.96224605099324  -10.92582772422432    2.21064871555779
C          -5.62201615992570  -13.26195077719063    0.78356589172479
C          -5.39230421186440  -14.03607555292699    1.88251294749809
C          -5.04455944306138  -15.37340697660353    1.57367360106167
C          -4.75494132758967  -16.42600996908637    2.46554436500478
C          -4.71387516124367  -16.24448845785126    3.90206421437687
C          -5.12338346127690  -17.11780737003743    4.86932405097955
C          -4.87834227630961  -16.64154289816614    6.17510710492705
C          -4.27435953049909  -15.41918417475083    6.22809509033054
S          -4.00437628811796  -14.82466383167427    4.62562236502365
C          -3.86698761451771  -14.63058373636036    7.41797334646314
Cl         -5.31272102680819  -17.54310859435022    7.57607169877534
C          -4.48864874873728  -17.66679342065614    1.89257537065755
C          -4.44910929665082  -17.88309336675911    0.49334552243361
C          -4.70263578134657  -16.82209012482595   -0.39908128297086
C          -5.02920900402908  -15.59918573142775    0.17376436604729
S          -5.41809129948951  -14.15104645630234   -0.71015500583928
C          -4.60474891973636  -17.01597856907556   -1.83133561309008
C          -3.66728827264731  -17.73526293870228   -2.51673291025444
C          -3.88818217160143  -17.73220001817481   -3.91094654363567
C          -4.98270215088055  -17.01928363286044   -4.30618837579105
S          -5.76604359078093  -16.32085257836392   -2.92873223666261
C          -5.50990811369164  -16.80484323152234   -5.67697829133560
Cl         -2.85633924112574  -18.57614509562953   -5.00282714898407
C          -4.15383818265687  -19.22994145919861    0.17495303420020
C          -3.94068629057971  -20.01762830748565    1.26866110744862
S          -4.11841377961831  -19.12979177770634    2.76407817747397
C          -3.60850007312958  -21.40664112144694    1.26416423754896
C          -3.12005851342471  -22.11938889185252    0.20566379444101
C          -2.88795533173738  -23.48247814932828    0.49774522616528
C          -2.34699222762136  -24.47052366905203   -0.35348574692233
C          -2.09925405638090  -24.19898475246272   -1.75294735674483
C          -2.85691277144786  -23.44402183955408   -2.60464032400822
C          -2.33156958037474  -23.40316625458222   -3.91304604922307
C          -1.18105719161397  -24.11847812014199   -4.08177011281498
S          -0.72815968356815  -24.87297301627957   -2.59143169895962
C          -0.38058370697411  -24.31022073590548   -5.31671245014869
Cl         -3.08279501308882  -22.50977208804771   -5.17853140948390
C          -2.11028498301211  -25.71288830191774    0.22079203749080
C          -2.45868491433150  -26.03581884612886    1.55807498188692
C          -3.01352818098155  -25.04993007586083    2.40380222847980
C          -3.20898943225196  -23.79348415047320    1.84292049335338
S          -3.80568068873515  -22.39295938886222    2.69070765855654
C          -3.33420002588399  -25.33752729320538    3.78521731720595
C          -2.60974596037024  -26.06710679348927    4.68551476347208
C          -3.22745735734216  -26.13581365435538    5.95222037446315
C          -4.41979436176835  -25.47511289462445    6.03495439097731
S          -4.79441366189941  -24.73231475392392    4.51815765657432
C          -5.33330079056936  -25.34608682283982    7.19736618620861
Cl         -2.52143198383180  -26.98731377512993    7.27271074923169
C          -2.21785209215066  -27.39529699964534    1.84710160853893
C          -1.69289524043842  -28.10685623605665    0.79710127524447
S          -1.43217380739272  -27.08289935525271   -0.60411269890267
C          -1.28428913106744  -29.46342168098219    0.84714778823021
C          -0.90438234032535  -30.28288639488296   -0.16850257324684
C          -0.04403518670592  -31.46319462241044    0.12154705483833
O           0.14657195832344  -31.97855050441614    1.19767296869845
C           0.57465877241452  -31.80977193902208   -1.17582870427540
C           1.54502284564775  -32.73195963953364   -1.44273189485605
C           2.01272980026996  -32.87295266482881   -2.76857318185385
C           1.46564501265119  -32.04963571205921   -3.79555211876384
C           1.94239337992603  -32.19257665714284   -5.11415804226605
C           2.91339477810426  -33.11051664794713   -5.40036826514310
C           3.45277704406575  -33.92473557154421   -4.38433908628616
C           3.01261892478311  -33.80962143003435   -3.09571376413560
F           4.40517082222246  -34.81518525698404   -4.69370890250308
F           3.36399299763842  -33.24506129531441   -6.65473137912689
C           0.45535139525509  -31.10879660700737   -3.49128024045999
C           0.01334180784794  -30.99458863065444   -2.20082790443370
C          -1.02831210071212  -30.16277740947628   -1.60651196517412
C          -2.08664343423595  -29.60940488348502   -2.27599334506661
C          -3.23943874891537  -29.12838082581845   -1.61733484114950
N          -4.21857052007203  -28.80120607105998   -1.11624860611942
C          -2.17800900605730  -29.54877930670670   -3.68013449517811
N          -2.27331185933698  -29.45043476370752   -4.81979976685013
H         -10.96178452460689    2.59361376179406   -2.88212444503161
H         -10.99170206897248   -1.00303962736854   -6.29281708555293
H          -9.99191976632429    1.07078824324457   -1.24956133833598
H          -9.99001483596151   -2.58614699475103   -4.63877373140487
H          -8.03655276369928   -3.43355878851647    1.26997446991971
H          -7.33303408029491   -5.46949857981904    2.22909819414456
H          -8.39801171803173   -6.84118508663098    3.75961995922631
H          -5.40553609998404   -7.24342184444069    7.63486698421264
H          -4.09549231215164   -8.11177189840012    6.80913943087794
H          -5.47019062870617   -8.99970308271646    7.46727962095696
H          -5.52445702438490  -10.20662095331028   -2.87609318531617
H          -8.39876143863082   -9.54370639818477   -6.77160554573961
H          -9.18004385878374   -8.07770403663239   -6.15059206798884
H          -9.89802226479800   -9.65565522303793   -5.83671339017471
H          -6.47610539773080  -11.60129515946086   -1.31620849381609
H          -5.48983417805005  -13.65075656367893    2.88071915819434
H          -5.61750100261210  -18.05090006457441    4.67308063449904
H          -4.22231981513330  -15.12085903555284    8.32087892720213
H          -4.28042857318026  -13.62415685682903    7.37095741856325
H          -2.78148122494355  -14.54500758367413    7.46857102434644
H          -2.81977678242996  -18.21127070950376   -2.05932136433056
H          -4.88927715188692  -17.33393299529230   -6.39579267332968
H          -5.51232945064401  -15.74368196525922   -5.92416046592046
H          -6.53354680871240  -17.16922414327325   -5.75648213366029
H          -4.14333134603531  -19.61012758258592   -0.82876946884725
H          -2.88179887458290  -21.66761394636647   -0.73816720065969
H          -3.78469929216956  -22.97620461918267   -2.33277240936324
H          -0.57673606175524  -23.49844701323682   -6.01360464053382
H          -0.64854438861415  -25.25100796788325   -5.79978618626847
H           0.68189080544534  -24.33933634856120   -5.08524374452554
H          -1.64847452446610  -26.49926690691342    4.47750784969788
H          -4.92838375892701  -25.89223585381168    8.04555097402658
H          -6.31860325240530  -25.74384371564150    6.95702879671177
H          -5.45371937066342  -24.29929710261290    7.47450261850957
H          -2.46791702382663  -27.85754364004130    2.78444841098829
H          -1.16051504112591  -29.87400860726896    1.84473882806744
H           1.95112314443070  -33.34608103688048   -0.65348342355841
H           1.53784769733020  -31.57986524450693   -5.90450348637719
H           3.43557758061995  -34.44010799842118   -2.32939400745088
H           0.06100815881300  -30.49236566912383   -4.28351428803303
