# ORCA input file
# SCF done       -326.674919435037          0.000468658411
! CAM-B3LYP def2-SVP def2/J RIJCOSX Grid4 TightSCF
%maxcore 5000
%tddft
    Mode sTDDFT
    Ethresh 5.0
    maxcore 5000
end

%pal
  nprocs 6
  end
* xyz 0 1
   C      -10.96139         1.79983        -3.61271
   C      -11.43679         2.03934        -4.87134
   F      -11.90110         3.25282        -5.19624
   C      -11.44580         1.01696        -5.84150
   F      -11.91879         1.27987        -7.06712
   C      -10.97810        -0.23113        -5.53940
   C      -10.48146        -0.50904        -4.25119
   C      -10.47270         0.52327        -3.26889
   C       -9.98192         0.26765        -1.96807
   C       -9.51444        -0.98262        -1.65763
   C       -9.52676        -2.00545        -2.64591
   C       -9.99294        -1.78961        -3.91037
   C       -8.98179        -3.24739        -2.06770
   O       -8.83534        -4.30409        -2.64921
   C       -8.66145        -2.93567        -0.66370
   C       -8.96374        -1.53520        -0.42214
   C       -8.76922        -0.82855         0.73616
   C       -9.08841         0.53761         0.89061
   N       -9.32488         1.64410         1.08420
   C       -8.22241        -1.33248         1.93517
   N       -7.78687        -1.65588         2.94771
   C       -8.19264        -3.81900         0.26944
   C       -7.88341        -5.19005         0.16317
   C       -7.46883        -5.92188         1.26319
   C       -7.21303        -7.27266         0.99097
   C       -6.76768        -8.27799         1.88579
   C       -6.64127        -8.01386         3.30202
   C       -7.48212        -7.28791         4.09932
   C       -7.05460        -7.24210         5.44241
   C       -5.89092        -7.91468         5.68641
   S       -5.30805        -8.64401         4.23073
   C       -5.16959        -8.07436         6.97405
  Cl       -7.93089        -6.40346         6.66405
   C       -6.48895        -9.51608         1.32771
   C       -6.66173        -9.80674        -0.05218
   C       -7.12657        -8.81306        -0.93500
   C       -7.40521        -7.56479        -0.38610
   S       -7.95495        -6.17844        -1.28044
   C       -7.29615        -9.08662        -2.34805
   C       -6.46986        -9.79320        -3.17502
   C       -6.96100        -9.86923        -4.49570
   C       -8.15313        -9.23441        -4.69223
   S       -8.69163        -8.51041        -3.21593
   C       -8.95349        -9.12120        -5.93750
  Cl       -6.11315       -10.70258        -5.74242
   C       -6.37261       -11.16057        -0.34179
   C       -5.98767       -11.88567         0.74812
   S       -5.96225       -10.92583         2.21065
   C       -5.62202       -13.26195         0.78357
   C       -5.39230       -14.03608         1.88251
   C       -5.04456       -15.37341         1.57367
   C       -4.75494       -16.42601         2.46554
   C       -4.71388       -16.24449         3.90206
   C       -5.12338       -17.11781         4.86932
   C       -4.87834       -16.64154         6.17511
   C       -4.27436       -15.41918         6.22810
   S       -4.00438       -14.82466         4.62562
   C       -3.86699       -14.63058         7.41797
  Cl       -5.31272       -17.54311         7.57607
   C       -4.48865       -17.66679         1.89258
   C       -4.44911       -17.88309         0.49335
   C       -4.70264       -16.82209        -0.39908
   C       -5.02921       -15.59919         0.17376
   S       -5.41809       -14.15105        -0.71016
   C       -4.60475       -17.01598        -1.83134
   C       -3.66729       -17.73526        -2.51673
   C       -3.88818       -17.73220        -3.91095
   C       -4.98270       -17.01928        -4.30619
   S       -5.76604       -16.32085        -2.92873
   C       -5.50991       -16.80484        -5.67698
  Cl       -2.85634       -18.57615        -5.00283
   C       -4.15384       -19.22994         0.17495
   C       -3.94069       -20.01763         1.26866
   S       -4.11841       -19.12979         2.76408
   C       -3.60850       -21.40664         1.26416
   C       -3.12006       -22.11939         0.20566
   C       -2.88796       -23.48248         0.49775
   C       -2.34699       -24.47052        -0.35349
   C       -2.09925       -24.19898        -1.75295
   C       -2.85691       -23.44402        -2.60464
   C       -2.33157       -23.40317        -3.91305
   C       -1.18106       -24.11848        -4.08177
   S       -0.72816       -24.87297        -2.59143
   C       -0.38058       -24.31022        -5.31671
  Cl       -3.08280       -22.50977        -5.17853
   C       -2.11028       -25.71289         0.22079
   C       -2.45868       -26.03582         1.55807
   C       -3.01353       -25.04993         2.40380
   C       -3.20899       -23.79348         1.84292
   S       -3.80568       -22.39296         2.69071
   C       -3.33420       -25.33753         3.78522
   C       -2.60975       -26.06711         4.68551
   C       -3.22746       -26.13581         5.95222
   C       -4.41979       -25.47511         6.03495
   S       -4.79441       -24.73231         4.51816
   C       -5.33330       -25.34609         7.19737
  Cl       -2.52143       -26.98731         7.27271
   C       -2.21785       -27.39530         1.84710
   C       -1.69290       -28.10686         0.79710
   S       -1.43217       -27.08290        -0.60411
   C       -1.28429       -29.46342         0.84715
   C       -0.90438       -30.28289        -0.16850
   C       -0.04404       -31.46319         0.12155
   O        0.14657       -31.97855         1.19767
   C        0.57466       -31.80977        -1.17583
   C        1.54502       -32.73196        -1.44273
   C        2.01273       -32.87295        -2.76857
   C        1.46565       -32.04964        -3.79555
   C        1.94239       -32.19258        -5.11416
   C        2.91339       -33.11052        -5.40037
   C        3.45278       -33.92474        -4.38434
   C        3.01262       -33.80962        -3.09571
   F        4.40517       -34.81519        -4.69371
   F        3.36399       -33.24506        -6.65473
   C        0.45535       -31.10880        -3.49128
   C        0.01334       -30.99459        -2.20083
   C       -1.02831       -30.16278        -1.60651
   C       -2.08664       -29.60940        -2.27599
   C       -3.23944       -29.12838        -1.61733
   N       -4.21857       -28.80121        -1.11625
   C       -2.17801       -29.54878        -3.68013
   N       -2.27331       -29.45043        -4.81980
   H      -10.96178         2.59361        -2.88212
   H      -10.99170        -1.00304        -6.29282
   H       -9.99192         1.07079        -1.24956
   H       -9.99001        -2.58615        -4.63877
   H       -8.03655        -3.43356         1.26997
   H       -7.33303        -5.46950         2.22910
   H       -8.39801        -6.84119         3.75962
   H       -5.40554        -7.24342         7.63487
   H       -4.09549        -8.11177         6.80914
   H       -5.47019        -8.99970         7.46728
   H       -5.52446       -10.20662        -2.87609
   H       -8.39876        -9.54371        -6.77161
   H       -9.18004        -8.07770        -6.15059
   H       -9.89802        -9.65566        -5.83671
   H       -6.47611       -11.60130        -1.31621
   H       -5.48983       -13.65076         2.88072
   H       -5.61750       -18.05090         4.67308
   H       -4.22232       -15.12086         8.32088
   H       -4.28043       -13.62416         7.37096
   H       -2.78148       -14.54501         7.46857
   H       -2.81978       -18.21127        -2.05932
   H       -4.88928       -17.33393        -6.39579
   H       -5.51233       -15.74368        -5.92416
   H       -6.53355       -17.16922        -5.75648
   H       -4.14333       -19.61013        -0.82877
   H       -2.88180       -21.66761        -0.73817
   H       -3.78470       -22.97620        -2.33277
   H       -0.57674       -23.49845        -6.01360
   H       -0.64854       -25.25101        -5.79979
   H        0.68189       -24.33934        -5.08524
   H       -1.64847       -26.49927         4.47751
   H       -4.92838       -25.89224         8.04555
   H       -6.31860       -25.74384         6.95703
   H       -5.45372       -24.29930         7.47450
   H       -2.46792       -27.85754         2.78445
   H       -1.16052       -29.87401         1.84474
   H        1.95112       -33.34608        -0.65348
   H        1.53785       -31.57987        -5.90450
   H        3.43558       -34.44011        -2.32939
   H        0.06101       -30.49237        -4.28351
*
