96
 SCF done       -205.730074284351          0.000689128951
C          -0.79863826730706   -0.92275139639990    3.88908953469837
C          -0.58178050009712    0.25958028318522    3.23373072707909
C           0.03606186181228    1.38686535665316    3.81796642380428
N           0.53202530707969    2.33623296387212    4.22954469257483
C          -0.94918877499584    0.54264093880437    1.90028026442079
N          -1.22248890778180    0.85430195908353    0.82964745313271
C          -0.44747131737898   -1.19179632971033    5.28351172042473
C          -0.88476826914600   -2.48556279196869    5.61982100909109
C          -0.69386379953560   -3.02482058828396    6.87580916665754
C          -0.04127118157311   -2.22697444975167    7.80386247328776
C           0.40357972184649   -0.94816915618083    7.50155326998927
C           0.20244359637238   -0.41906700189081    6.23550191262235
F           0.17094632812229   -2.70721102518745    9.03868567503142
C          -1.53070625640228   -3.10247291780705    4.44671781786364
O          -2.03553906376531   -4.21049315530652    4.39931998577421
C          -1.43133655952953   -2.12019068881058    3.36310958224804
C          -1.81343173188616   -2.32847263979062    2.06245918880191
C          -2.40030983618094   -3.44980868672625    1.45665389963411
C          -2.63737374230453   -3.49976346114109    0.07675579898014
C          -3.19592401420418   -4.69806862690521   -0.32166037245781
C          -3.41328324816657   -5.57593636082023    0.76858314464546
S          -2.90930986684755   -4.93482827684455    2.26255834150654
C          -3.95866415002107   -6.77778610308108    0.25651507142401
C          -4.07587415383117   -6.67177104114246   -1.14147354179502
C          -3.61455179763913   -5.35468559220111   -1.55030973206364
C          -3.58187051378064   -4.85158518010610   -2.81698551155424
C          -4.02048341081576   -5.60243579285143   -3.92840141390508
N          -4.37715256400117   -6.21787054003599   -4.82761063948114
C          -3.10929929491965   -3.55220181039191   -3.10065449983937
N          -2.72430671168609   -2.49897557936642   -3.33748189175834
C          -4.56780758705536   -7.83202503990329   -1.73597058827304
C          -4.83628100643748   -8.81599406383994   -0.80050604916557
S          -4.48000373677363   -8.29747487721203    0.83944287069393
C          -5.30196868787261  -10.13251415575032   -1.04750581110839
C          -5.69401938966254  -11.07971939338509   -0.11888220172469
C          -6.04406828789006  -12.28664762896913   -0.72288101227165
C          -5.90586930481966  -12.25803492766584   -2.12176643014746
S          -5.37338369086474  -10.74158000824111   -2.69547788802769
C          -6.23273360043619  -13.53824812114151   -2.63495782045301
C          -6.59025083417386  -14.37384444217182   -1.56225066237669
C          -6.49570422809513  -13.61163485571816   -0.32641342638977
C          -6.76944224516925  -14.04805973984881    0.93580413977179
C          -7.20348872002648  -15.36595604642688    1.19341381296115
N          -7.55300519758870  -16.43815164254788    1.39937206904857
C          -6.63734503918239  -13.20860529634338    2.06255303474241
N          -6.52706580096493  -12.52467896608530    2.97594093533601
C          -6.89171950186536  -15.67400272317191   -1.96479243071701
C          -6.75379451842505  -15.83617684503376   -3.33187065367142
S          -6.26420716697268  -14.35081893677047   -4.13542342822876
C          -6.91976159499376  -17.02609918466638   -4.08410246697919
C          -6.66650875732147  -17.20682056365146   -5.43320517332346
C          -6.88671927206310  -18.52333984410028   -5.83098087023882
C          -7.32195778715522  -19.34971968339584   -4.77903786379658
S          -7.45500658022159  -18.50358564033268   -3.30025330000479
C          -7.50215516382174  -20.66331224723999   -5.27759467203170
C          -7.16648884368908  -20.66641346982339   -6.64803391653051
C          -6.78325578453032  -19.32275597079923   -7.04204016085373
C          -6.42586170084574  -18.90579589026213   -8.29026066027399
C          -6.38318041548220  -19.80342610840069   -9.37840607557692
N          -6.34942391741129  -20.55001956186278  -10.24807306373813
C          -6.07487224789764  -17.56672280106002   -8.56187728590376
N          -5.78308701343321  -16.47813243457897   -8.77170994098035
C          -7.31582570343912  -21.91236986010728   -7.23967569436130
C          -7.77455670785726  -22.86860129271849   -6.34379819782114
S          -7.98674899650410  -22.19786275561132   -4.72836753444375
C          -8.01652602549541  -24.24190888685490   -6.55547241697429
C          -8.16520048611905  -24.91719599444118   -7.72980552950518
C          -8.39869611282278  -24.50600988026939   -9.09869356775232
C          -9.09026972362691  -23.40146527003937   -9.52098565857913
C          -9.40042827519862  -23.13522502676450  -10.87212040684649
N          -9.68252062026228  -22.87340348537347  -11.95267047043857
C          -9.65714855820509  -22.44934791089628   -8.65107167003249
N         -10.15354450640174  -21.66326157784522   -7.97742879107093
C          -8.01602982040316  -25.62803170042841   -9.95547345400051
C          -7.80052686848301  -26.76180600687118   -9.15019911089073
C          -7.96936461363821  -26.39495864056072   -7.72785577661539
O          -7.91524880612234  -27.11472949966451   -6.75942503154662
C          -7.46208671601930  -27.98599482489188   -9.69082712307364
C          -7.33070715170088  -28.04495959193359  -11.07060235830649
C          -7.51853561970305  -26.93766436958751  -11.88569517399087
C          -7.86736064775390  -25.71551138670786  -11.33155814549712
F          -7.00234508416744  -29.21422369910772  -11.64148170678301
H          -1.03372502751819   -4.01772253497326    7.12332989222558
H           0.90724530459116   -0.37401524896556    8.26313943541262
H           0.55513441538558    0.57445479253168    6.01423961968255
H          -1.62261576942127   -1.52482610460842    1.36141264494399
H          -2.39076892018983   -2.68110811023655   -0.57616037637731
H          -4.72750857264155   -7.97079643587007   -2.79022884815888
H          -5.71574434017311  -10.88448330431678    0.93827746200222
H          -7.18406932222813  -16.47519022583486   -1.30991273607319
H          -6.33000135234843  -16.41270913258547   -6.07547157585889
H          -7.05941609086835  -22.13852803194266   -8.25831186257030
H          -8.01470619870920  -24.86994491345288   -5.66948257644761
H          -7.30655545453989  -28.85498593353803   -9.07177869474084
H          -7.38918481213269  -27.04240609086465  -12.95135502870395
H          -8.00168407372600  -24.85675826275491  -11.96882209732281
