# ORCA input file
# SCF done       -205.730074284351          0.000689128951
! CAM-B3LYP def2-SVP def2/J RIJCOSX Grid4 TightSCF
%maxcore 5000
%tddft
    Mode sTDDFT
    Ethresh 5.0
    maxcore 5000
end

%pal
  nprocs 6
  end
* xyz 0 1
   C       -0.79864        -0.92275         3.88909
   C       -0.58178         0.25958         3.23373
   C        0.03606         1.38687         3.81797
   N        0.53203         2.33623         4.22954
   C       -0.94919         0.54264         1.90028
   N       -1.22249         0.85430         0.82965
   C       -0.44747        -1.19180         5.28351
   C       -0.88477        -2.48556         5.61982
   C       -0.69386        -3.02482         6.87581
   C       -0.04127        -2.22697         7.80386
   C        0.40358        -0.94817         7.50155
   C        0.20244        -0.41907         6.23550
   F        0.17095        -2.70721         9.03869
   C       -1.53071        -3.10247         4.44672
   O       -2.03554        -4.21049         4.39932
   C       -1.43134        -2.12019         3.36311
   C       -1.81343        -2.32847         2.06246
   C       -2.40031        -3.44981         1.45665
   C       -2.63737        -3.49976         0.07676
   C       -3.19592        -4.69807        -0.32166
   C       -3.41328        -5.57594         0.76858
   S       -2.90931        -4.93483         2.26256
   C       -3.95866        -6.77779         0.25652
   C       -4.07587        -6.67177        -1.14147
   C       -3.61455        -5.35469        -1.55031
   C       -3.58187        -4.85159        -2.81699
   C       -4.02048        -5.60244        -3.92840
   N       -4.37715        -6.21787        -4.82761
   C       -3.10930        -3.55220        -3.10065
   N       -2.72431        -2.49898        -3.33748
   C       -4.56781        -7.83203        -1.73597
   C       -4.83628        -8.81599        -0.80051
   S       -4.48000        -8.29747         0.83944
   C       -5.30197       -10.13251        -1.04751
   C       -5.69402       -11.07972        -0.11888
   C       -6.04407       -12.28665        -0.72288
   C       -5.90587       -12.25803        -2.12177
   S       -5.37338       -10.74158        -2.69548
   C       -6.23273       -13.53825        -2.63496
   C       -6.59025       -14.37384        -1.56225
   C       -6.49570       -13.61163        -0.32641
   C       -6.76944       -14.04806         0.93580
   C       -7.20349       -15.36596         1.19341
   N       -7.55301       -16.43815         1.39937
   C       -6.63735       -13.20861         2.06255
   N       -6.52707       -12.52468         2.97594
   C       -6.89172       -15.67400        -1.96479
   C       -6.75379       -15.83618        -3.33187
   S       -6.26421       -14.35082        -4.13542
   C       -6.91976       -17.02610        -4.08410
   C       -6.66651       -17.20682        -5.43321
   C       -6.88672       -18.52334        -5.83098
   C       -7.32196       -19.34972        -4.77904
   S       -7.45501       -18.50359        -3.30025
   C       -7.50216       -20.66331        -5.27759
   C       -7.16649       -20.66641        -6.64803
   C       -6.78326       -19.32276        -7.04204
   C       -6.42586       -18.90580        -8.29026
   C       -6.38318       -19.80343        -9.37841
   N       -6.34942       -20.55002       -10.24807
   C       -6.07487       -17.56672        -8.56188
   N       -5.78309       -16.47813        -8.77171
   C       -7.31583       -21.91237        -7.23968
   C       -7.77456       -22.86860        -6.34380
   S       -7.98675       -22.19786        -4.72837
   C       -8.01653       -24.24191        -6.55547
   C       -8.16520       -24.91720        -7.72981
   C       -8.39870       -24.50601        -9.09869
   C       -9.09027       -23.40147        -9.52099
   C       -9.40043       -23.13523       -10.87212
   N       -9.68252       -22.87340       -11.95267
   C       -9.65715       -22.44935        -8.65107
   N      -10.15354       -21.66326        -7.97743
   C       -8.01603       -25.62803        -9.95547
   C       -7.80053       -26.76181        -9.15020
   C       -7.96936       -26.39496        -7.72786
   O       -7.91525       -27.11473        -6.75943
   C       -7.46209       -27.98599        -9.69083
   C       -7.33071       -28.04496       -11.07060
   C       -7.51854       -26.93766       -11.88570
   C       -7.86736       -25.71551       -11.33156
   F       -7.00235       -29.21422       -11.64148
   H       -1.03373        -4.01772         7.12333
   H        0.90725        -0.37402         8.26314
   H        0.55513         0.57445         6.01424
   H       -1.62262        -1.52483         1.36141
   H       -2.39077        -2.68111        -0.57616
   H       -4.72751        -7.97080        -2.79023
   H       -5.71574       -10.88448         0.93828
   H       -7.18407       -16.47519        -1.30991
   H       -6.33000       -16.41271        -6.07547
   H       -7.05942       -22.13853        -8.25831
   H       -8.01471       -24.86994        -5.66948
   H       -7.30656       -28.85499        -9.07178
   H       -7.38918       -27.04241       -12.95136
   H       -8.00168       -24.85676       -11.96882
*
