110
 SCF done       -233.198523202925          0.000928946902
C          -4.83436718596686   -1.48731089188941    0.17128102102750
C          -5.47423582793094   -2.51446981243891   -0.47109627680107
C          -6.86907353222086   -2.71980272894928   -0.43720805485833
N          -7.99387201265422   -2.94637751786167   -0.42489525773752
C          -4.81258547838316   -3.43095114837574   -1.31529428785259
N          -4.31260844443633   -4.16898245004123   -2.03837119204393
C          -5.50087949121363   -0.34676049648434    0.79773628300555
C          -4.59268785805292    0.72801311757569    0.86394771283034
C          -4.96135885802170    1.95480289051799    1.37066264446270
C          -6.27287941401670    2.11492861423290    1.83221237851313
C          -7.17913830910865    1.04313524280862    1.78041563657383
C          -6.79541076862477   -0.19122245177272    1.26028885175572
C          -8.56737975214449    1.25894156112818    2.28092564221835
O          -8.98513336957692    2.32006231791161    2.66690695695109
O          -9.29246785095478    0.13895550367842    2.24619131731999
C         -10.63887625669500    0.25649450506349    2.68593170515598
C          -6.62987268949283    3.38461637468568    2.35478317689916
N          -6.78077102530542    4.44761783182579    2.75462170011921
C          -3.27574326098021    0.29480352271379    0.33677760304056
O          -2.27933270784978    0.95980470275169    0.19114018868012
C          -3.42690159177079   -1.16370942600399    0.08296845777579
C          -2.31777345457236   -1.93449235735670   -0.09851181767524
C          -2.16656900398404   -3.32871088478517    0.06375925186543
C          -1.13829930701707   -4.10429422194185   -0.45315426502319
C          -1.25409730132904   -5.44190824114336   -0.09497540659344
C          -2.35780478149547   -5.68574308983276    0.74960884927652
S          -3.25705857544296   -4.28015202441683    1.07490296968755
C          -2.39586729948885   -7.06336971203778    1.05855917428083
C          -1.33066068159552   -7.70360978837989    0.39926823616294
C          -0.57075310346608   -6.70161386252411   -0.33729103339145
C           0.54778076596357   -6.90439323700251   -1.08882972494689
C           1.12568896225443   -8.18323369020547   -1.24315473156892
N           1.59490992952735   -9.22249278998934   -1.35912180436765
C           1.21095382153419   -5.84639334782618   -1.74775255638498
N           1.75877660673783   -4.99115649437414   -2.27869809688886
C          -1.30501567860350   -9.07917440759509    0.61603226595795
C          -2.34013032940029   -9.49007002986819    1.44257490392963
S          -3.35394881859174   -8.15394111005732    1.95758872109311
C          -2.64471281255314  -10.81268475902774    1.85572787427040
C          -2.07747421453272  -11.99323825738176    1.40397978145934
C          -2.65650762552711  -13.10994136275184    2.00459533278507
C          -3.66173221642499  -12.77579280299372    2.92999720621046
S          -3.90070533845756  -11.09204914930534    3.05258293097569
C          -4.20053396658307  -13.96986095352476    3.46698897165509
C          -3.54715044069703  -15.06428091760671    2.87292332301256
C          -2.54944000862200  -14.56050124745400    1.94050910572284
C          -1.70164259821681  -15.29418781937144    1.16565946528205
C          -1.69999488552370  -16.70553091817139    1.19077058418168
N          -1.70176561121236  -17.85149119337538    1.21575916273592
C          -0.77451383972154  -14.69033483927629    0.28872439893847
N          -0.02454130926401  -14.19938572466235   -0.42547175772825
C          -4.03548250970670  -16.29193873988137    3.31760109622181
C          -5.04574921559621  -16.13833125315478    4.25058654279552
S          -5.39721519208350  -14.44840609312599    4.58514913082348
C          -5.79493125644283  -17.15244188731303    4.89824373914473
C          -6.73227426249584  -16.98332215811184    5.90338284107142
C          -7.30441744549599  -18.19350032555288    6.28712832533945
C          -6.80489056221657  -19.29197335944496    5.56248244128601
S          -5.61594946763199  -18.83314181734279    4.42307283221447
C          -7.46113321592527  -20.46856230495563    5.99482107394328
C          -8.37977622163446  -20.10589687650937    7.01203996547548
C          -8.30426179909240  -18.66963489969216    7.22921153022170
C          -9.01885807862928  -17.92198592524543    8.11747777273543
C          -9.97560485697393  -18.49205884432749    8.98462758817661
N         -10.75543841150796  -18.94734826631702    9.69046527806013
C          -8.84801876917399  -16.52503307771174    8.22192378811700
N          -8.70489661128351  -15.39024031229977    8.30109825955206
C          -9.08579362667707  -21.19126082590880    7.48862594949693
C          -8.74057066243506  -22.38464226778590    6.83853769539869
S          -7.49177902339426  -22.12712648936982    5.61715128960506
C          -9.35614163058275  -23.60157735229344    7.16058007512519
C          -9.21762143919236  -24.84469681685330    6.59374643527421
C          -9.92859029716716  -26.04709376153757    6.98786842982248
C         -10.74299126819213  -26.21847808673685    8.07510320304734
C         -11.39092423359025  -27.43129156477540    8.39786715620486
N         -11.94845967341862  -28.38148690314576    8.71807530349884
C         -11.03987413543617  -25.23295352905907    9.04178664770573
N         -11.31983215205527  -24.49155604546180    9.87229371346763
C          -9.58960720252333  -27.09012036800543    6.01862141249135
C          -8.66028458598153  -26.57058421144412    5.09782027484981
C          -8.37889295435685  -25.16075902956794    5.43510145867350
O          -7.60841149191992  -24.42025014002952    4.85051633859915
C          -8.15222708081161  -27.32723972773399    4.06515949534010
C          -8.58818723085187  -28.65060505638865    3.93889612012580
C          -9.52136041947113  -29.17586477413131    4.84699773257000
C         -10.02254114689256  -28.39861344704695    5.88974407510171
C          -9.96284575701004  -30.59028608759282    4.67506042451741
O          -9.48490272448862  -31.34966909146273    3.87209852394049
O         -10.94735184016541  -30.91212329750078    5.51553155559478
C         -11.43182922901998  -32.24534899325846    5.42886852933935
C          -8.06306996999225  -29.41216390841618    2.86355691157640
N          -7.57244705899360  -29.90591035997694    1.95355264484085
H          -4.25769462030766    2.77256660955425    1.40891328756925
H          -7.51086053283689   -0.99677718490654    1.23859773833127
H         -11.08533592191802   -0.72526402089880    2.55282509393687
H         -11.16637837724159    1.00501637783952    2.09169235589093
H         -10.66920917766719    0.55683857018139    3.73521410591653
H          -1.40663092449550   -1.38914682797426   -0.32702087267353
H          -0.37392400685483   -3.69634145376006   -1.08968016064617
H          -0.57806310263080   -9.75422398397629    0.20418154163292
H          -1.29765672084009  -12.02682946589123    0.66595716427042
H          -3.68631812489576  -17.25513221610547    2.99113561951476
H          -6.97211318090011  -16.02199455205007    6.32119705556329
H          -9.82990458612796  -21.15726676487485    8.26483551675629
H         -10.06667997508118  -23.51189959047496    7.97356731321187
H          -7.43903647482966  -26.90935475011932    3.37080614233128
H         -10.73709972741593  -28.83704101204639    6.56588900475262
H         -12.16216566542873  -32.35163070765498    6.22651122396409
H         -10.61198302997232  -32.95492727302954    5.55564710081750
H         -11.89599233848037  -32.41563350140932    4.45537964393376
