120
 SCF done       -251.063653346942          0.000680072427
C          -0.06083621803062    2.86571810234675    0.52242601890784
C           0.49630723716219    2.82755389402683    1.77316905056294
C          -0.14134712687288    2.28688900533334    2.91128638758324
N          -0.59768417927446    1.85734678151999    3.87182067896624
C           1.73907767384513    3.40435775580199    2.10227284234606
N           2.73235099845239    3.87926764065829    2.42771940101562
C          -1.44953890786963    2.51359636612241    0.22201263904554
C          -1.82218275937361    3.12385814526622   -0.99081578349378
C          -3.09623763014053    2.99624942895747   -1.50380825101538
C          -4.01820884497261    2.23326508553651   -0.79009195529574
C          -3.65059046663444    1.61731804149172    0.41093974524732
C          -2.36675301093770    1.75134855163032    0.92732176384472
C          -4.69242362007778    0.86938566431540    1.20002984109112
O          -5.52620595843298    1.41765368970254    1.86808521299960
O          -4.51149385354462   -0.44192172996827    1.11102921794635
C          -5.47368446311060   -1.24749643416695    1.78262835838038
C          -5.39813435466755    1.99842635945478   -1.29654687234569
O          -6.07744936296936    1.05877453666588   -0.96501657109267
O          -5.78653540720016    2.93275936303166   -2.16274269687844
C          -7.10025721830980    2.78720857332823   -2.68644643380851
C          -0.65965272500901    3.83979387634136   -1.55866645507895
O          -0.61340313897607    4.51403705260202   -2.55967942676588
C           0.48050352311338    3.50746412367261   -0.65722091157520
C           1.74777636798072    3.77209714560511   -1.08376379264654
C           2.96742337460628    3.24532234234529   -0.60926274501678
C           3.18950826351886    2.09019503736270    0.12791614822179
C           4.53408148302369    1.89799526575504    0.41095400619206
C           5.35854296077599    2.91369029046762   -0.11823880741371
S           4.47360439792450    4.07723676721535   -0.98674569784878
C           6.69365930463368    2.65329411801412    0.27636061402399
C           6.71368294718853    1.48061498374704    1.05334363604711
C           5.35642728660572    0.96937496378410    1.16504051500319
C           4.93118486853307   -0.12227444927863    1.86295117361389
C           5.82370505174914   -0.95231365404376    2.57318330220185
N           6.55574614877967   -1.62784489687326    3.14060689521457
C           3.56592655307415   -0.47614733357792    1.91099149999184
N           2.45269372106166   -0.74904216081142    1.93760761103967
C           7.98572430731230    1.15831227343224    1.51906197982596
C           8.93542020251317    2.07675296540218    1.10421828761005
S           8.24434370598859    3.35364919183923    0.11674402191657
C          10.31714548546616    2.08021658010270    1.41893427616581
C          11.27383419598781    3.00131910975929    1.03045629645108
C          12.52740473440059    2.70624184683644    1.56405798086729
C          12.52218239636311    1.54921634075388    2.36297671858740
S          10.98063738529680    0.82251905950873    2.45326989006484
C          13.82608526311501    1.34991381451206    2.87820854590637
C          14.65955142082656    2.38080835235586    2.40879801743659
C          13.87284284345332    3.26113995023367    1.55707307965969
C          14.30257932743675    4.36821276889546    0.88816633257737
C          15.64185958025983    4.81030329521939    0.94775919509315
N          16.73151750625230    5.16245059224303    0.99359873560943
C          13.43438682997025    5.13883685774419    0.08534085853206
N          12.72645233541931    5.76109746733342   -0.56708049977602
C          15.96534521959763    2.28553577898022    2.88788368560849
C          16.13204182283059    1.18826615638224    3.71700890672969
S          14.65088816061101    0.26023083454720    3.89831753691504
C          17.30802843089128    0.78954673081527    4.40384550309673
C          18.52378287040766    1.45361987294260    4.45410258342183
C          19.44877205511740    0.78125492933635    5.25015534924784
C          18.93750553990740   -0.40573313400498    5.80620194098757
S          17.31731909250341   -0.68894930213276    5.34996428671547
C          19.93818812754506   -1.00318348014203    6.60873614473910
C          21.08909539904446   -0.18851755196687    6.56116621803673
C          20.81614296372013    0.96102259493461    5.71623047668493
C          21.65543703766813    2.00517631195807    5.46335780471907
C          22.94819351030929    2.05920463261141    6.02717180891560
N          23.99504360321516    2.08636494782359    6.49387483253373
C          21.28451953504610    3.08786510882920    4.63796661222426
N          20.98136854571234    3.96293793845820    3.96272968904180
C          22.12157346164129   -0.66591439410153    7.35599597732639
C          21.77742160489418   -1.83705178187828    8.01780236519654
S          20.14799129420807   -2.36443672218332    7.60546129654059
C          22.54937515559947   -2.62354604204227    8.89752427193346
C          23.66974051867455   -2.28432087710674    9.59602103029552
C          24.30387381428597   -1.02395940037208    9.91913407426845
C          23.69603895665638    0.19269525369010   10.08143605968472
C          24.35990141821161    1.35337199245574   10.53572496061265
N          24.83945118844944    2.32709320321399   10.90640617024914
C          22.31495803780981    0.41483274360544    9.91427232475994
N          21.19321558071808    0.63890299559683    9.81616006368953
C          25.67459786371340   -1.32731846979439   10.33518779175963
C          25.80598775618150   -2.71936371993134   10.49683692450146
C          24.53539567757729   -3.37802942921087   10.12229294870056
O          24.25564624793399   -4.55123570782017   10.18416137375129
C          26.98627168142878   -3.29272515265917   10.92732389981231
C          28.06169542515196   -2.45561588554409   11.20281894088742
C          27.94304314647461   -1.07311450088884   11.02725201259424
C          26.75028528782608   -0.49677362088723   10.59159736357455
C          29.12653869885284   -0.22935415904200   11.35543028050239
O          30.07887443991407   -0.63352376674250   11.97647618937830
O          29.00791322706741    1.01371482156979   10.89788454164756
C          30.09016515148099    1.89124706733571   11.17947423247692
C          29.38388927774376   -3.04305544580072   11.62048489404152
O          30.25094774754600   -3.33209010459357   10.84146232470873
O          29.40934683696746   -3.27377183460423   12.92828979350003
C          30.63993384012803   -3.76365467418137   13.44830137960709
H          -3.36944886291764    3.46964041964409   -2.43359127195623
H          -2.10688368692929    1.25907157353886    1.85065818435258
H          -6.44563605702269   -1.13350077351723    1.29980187437269
H          -5.55595248412807   -0.94605718657109    2.82860978893962
H          -5.12140523432697   -2.27225776313761    1.70127159477956
H          -7.82453137413125    2.71699317631863   -1.87271570502268
H          -7.16635465606159    1.88325722172166   -3.29537390496843
H          -7.28513169504666    3.67092648262343   -3.29125523645721
H           1.80989326084076    4.43414821031313   -1.94229816391158
H           2.40290316188248    1.41125715785912    0.40254115144440
H           8.22464261651135    0.30876733943439    2.13351006364739
H          11.04982099709842    3.84085144228497    0.39704872124402
H          16.75734805279419    2.97219642662445    2.65331505097104
H          18.71159457217777    2.37963138774579    3.94312172334648
H          23.09669116529405   -0.21965172456821    7.42674678500708
H          22.25366534322142   -3.66410214636577    8.99489088806464
H          27.06359602488466   -4.36251793049277   11.04497543295966
H          26.69779178087573    0.57130726246850   10.45853129222738
H          31.00905583685985    1.51523391012188   10.72535768334908
H          30.23859675896998    1.97420786758412   12.25791042044545
H          29.81614729053198    2.85298662065401   10.75433569592282
H          30.44773159500186   -4.03163480540274   14.48380402750454
H          31.39650168495239   -2.97976584256220   13.38635900252701
H          30.97502822173573   -4.63133584329936   12.87677415980273
