# ORCA input file
# SCF done       -251.063653346942          0.000680072427
! CAM-B3LYP def2-SVP def2/J RIJCOSX Grid4 TightSCF
%maxcore 5000
%tddft
    Mode sTDDFT
    Ethresh 5.0
    maxcore 5000
end

%pal
  nprocs 6
  end
* xyz 0 1
   C       -0.06084         2.86572         0.52243
   C        0.49631         2.82755         1.77317
   C       -0.14135         2.28689         2.91129
   N       -0.59768         1.85735         3.87182
   C        1.73908         3.40436         2.10227
   N        2.73235         3.87927         2.42772
   C       -1.44954         2.51360         0.22201
   C       -1.82218         3.12386        -0.99082
   C       -3.09624         2.99625        -1.50381
   C       -4.01821         2.23327        -0.79009
   C       -3.65059         1.61732         0.41094
   C       -2.36675         1.75135         0.92732
   C       -4.69242         0.86939         1.20003
   O       -5.52621         1.41765         1.86809
   O       -4.51149        -0.44192         1.11103
   C       -5.47368        -1.24750         1.78263
   C       -5.39813         1.99843        -1.29655
   O       -6.07745         1.05877        -0.96502
   O       -5.78654         2.93276        -2.16274
   C       -7.10026         2.78721        -2.68645
   C       -0.65965         3.83979        -1.55867
   O       -0.61340         4.51404        -2.55968
   C        0.48050         3.50746        -0.65722
   C        1.74778         3.77210        -1.08376
   C        2.96742         3.24532        -0.60926
   C        3.18951         2.09020         0.12792
   C        4.53408         1.89800         0.41095
   C        5.35854         2.91369        -0.11824
   S        4.47360         4.07724        -0.98675
   C        6.69366         2.65329         0.27636
   C        6.71368         1.48061         1.05334
   C        5.35643         0.96937         1.16504
   C        4.93118        -0.12227         1.86295
   C        5.82371        -0.95231         2.57318
   N        6.55575        -1.62784         3.14061
   C        3.56593        -0.47615         1.91099
   N        2.45269        -0.74904         1.93761
   C        7.98572         1.15831         1.51906
   C        8.93542         2.07675         1.10422
   S        8.24434         3.35365         0.11674
   C       10.31715         2.08022         1.41893
   C       11.27383         3.00132         1.03046
   C       12.52740         2.70624         1.56406
   C       12.52218         1.54922         2.36298
   S       10.98064         0.82252         2.45327
   C       13.82609         1.34991         2.87821
   C       14.65955         2.38081         2.40880
   C       13.87284         3.26114         1.55707
   C       14.30258         4.36821         0.88817
   C       15.64186         4.81030         0.94776
   N       16.73152         5.16245         0.99360
   C       13.43439         5.13884         0.08534
   N       12.72645         5.76110        -0.56708
   C       15.96535         2.28554         2.88788
   C       16.13204         1.18827         3.71701
   S       14.65089         0.26023         3.89832
   C       17.30803         0.78955         4.40385
   C       18.52378         1.45362         4.45410
   C       19.44877         0.78125         5.25016
   C       18.93751        -0.40573         5.80620
   S       17.31732        -0.68895         5.34996
   C       19.93819        -1.00318         6.60874
   C       21.08910        -0.18852         6.56117
   C       20.81614         0.96102         5.71623
   C       21.65544         2.00518         5.46336
   C       22.94819         2.05920         6.02717
   N       23.99504         2.08636         6.49387
   C       21.28452         3.08787         4.63797
   N       20.98137         3.96294         3.96273
   C       22.12157        -0.66591         7.35600
   C       21.77742        -1.83705         8.01780
   S       20.14799        -2.36444         7.60546
   C       22.54938        -2.62355         8.89752
   C       23.66974        -2.28432         9.59602
   C       24.30387        -1.02396         9.91913
   C       23.69604         0.19270        10.08144
   C       24.35990         1.35337        10.53572
   N       24.83945         2.32709        10.90641
   C       22.31496         0.41483         9.91427
   N       21.19322         0.63890         9.81616
   C       25.67460        -1.32732        10.33519
   C       25.80599        -2.71936        10.49684
   C       24.53540        -3.37803        10.12229
   O       24.25565        -4.55124        10.18416
   C       26.98627        -3.29273        10.92732
   C       28.06170        -2.45562        11.20282
   C       27.94304        -1.07311        11.02725
   C       26.75029        -0.49677        10.59160
   C       29.12654        -0.22935        11.35543
   O       30.07887        -0.63352        11.97648
   O       29.00791         1.01371        10.89788
   C       30.09017         1.89125        11.17947
   C       29.38389        -3.04306        11.62048
   O       30.25095        -3.33209        10.84146
   O       29.40935        -3.27377        12.92829
   C       30.63993        -3.76365        13.44830
   H       -3.36945         3.46964        -2.43359
   H       -2.10688         1.25907         1.85066
   H       -6.44564        -1.13350         1.29980
   H       -5.55595        -0.94606         2.82861
   H       -5.12141        -2.27226         1.70127
   H       -7.82453         2.71699        -1.87272
   H       -7.16635         1.88326        -3.29537
   H       -7.28513         3.67093        -3.29126
   H        1.80989         4.43415        -1.94230
   H        2.40290         1.41126         0.40254
   H        8.22464         0.30877         2.13351
   H       11.04982         3.84085         0.39705
   H       16.75735         2.97220         2.65332
   H       18.71159         2.37963         3.94312
   H       23.09669        -0.21965         7.42675
   H       22.25367        -3.66410         8.99489
   H       27.06360        -4.36252        11.04498
   H       26.69779         0.57131        10.45853
   H       31.00906         1.51523        10.72536
   H       30.23860         1.97421        12.25791
   H       29.81615         2.85299        10.75434
   H       30.44773        -4.03163        14.48380
   H       31.39650        -2.97977        13.38636
   H       30.97503        -4.63134        12.87677
*
