102
 SCF done       -203.614832327519          0.000734394333
C          -5.58124883091155    0.15248300216266    0.89278864389434
C          -6.36573718351582   -0.34210859874391   -0.11498529610958
C          -7.09703954124104   -1.54338593940522   -0.03355380278217
N          -7.73042715784556   -2.50096265088452   -0.00921908080020
C          -6.61431101986622    0.34179693035401   -1.32440936825082
N          -6.85885193509184    0.85486849910299   -2.32110336028465
C          -5.00839778657951    1.49682200850777    0.91859867932709
C          -4.73470951114340    1.84943824516043    2.25457306390401
C          -4.22462006602848    3.09452186997699    2.56895847700347
C          -3.97851438957456    3.98626130784066    1.53604442004535
C          -4.22361725051522    3.64596482113845    0.20755108305272
C          -4.74420591947879    2.38887915020147   -0.10317289311979
C          -3.92330667797007    4.60525542643670   -0.89861325865887
C          -5.05235668228164    0.71688418152235    3.13876319141645
O          -5.00092225034595    0.66262359239853    4.34545664153050
C          -5.40534433876064   -0.40739128774322    2.21761483093150
C          -5.42047608396429   -1.67724295269706    2.70257261064414
C          -5.35929493188502   -2.88844714454534    1.97457780497131
C          -4.89003601439860   -3.09748318892366    0.68720705757979
C          -4.98513797754201   -4.42883586298309    0.30297384625798
C          -5.52732116876640   -5.25356495522300    1.30890682078774
S          -5.88848840304016   -4.38775870107334    2.72843781218063
C          -5.62911015629255   -6.57150692492501    0.79646829456388
C          -5.15464472055499   -6.57778368588346   -0.52722393075816
C          -4.73978891186900   -5.22958390282555   -0.88234373119589
C          -4.26626552289282   -4.79163305743497   -2.08397431982280
C          -4.08069489996709   -5.66068754891257   -3.17945664520951
N          -3.92352328480131   -6.37216322663592   -4.06458651730859
C          -3.93948388928175   -3.43534384232148   -2.29523315995365
N          -3.67763964037119   -2.32993311293177   -2.45144313224247
C          -5.24349783236158   -7.82957768661408   -1.13153237957764
C          -5.78529678047045   -8.77663477150474   -0.27996099561794
S          -6.18136517951531   -8.10935976148785    1.29583981654508
C          -6.06156011006349  -10.13479950343690   -0.57689378807186
C          -6.65485608423212  -11.08035603222703    0.24020510628982
C          -6.82051004482865  -12.30150125106913   -0.41263935523085
C          -6.34291892006964  -12.28313957005846   -1.73449769276286
S          -5.68681237421806  -10.77022336406002   -2.17304087164888
C          -6.59547806086555  -13.54596254632135   -2.32513917017944
C          -7.23720157410483  -14.36436782252514   -1.37932694874894
C          -7.38783615022704  -13.61394990467670   -0.14167907530306
C          -7.94898921396293  -14.04650790170015    1.02313231478692
C          -8.47502180410221  -15.34860373061668    1.16188009744434
N          -8.90295456511531  -16.40650142539389    1.27167808369032
C          -8.03770738396042  -13.21978222516393    2.16332455249345
N          -8.10906591578742  -12.54766820802359    3.08932939256732
C          -7.56978110050473  -15.62006132037071   -1.88659335972844
C          -7.18535647027490  -15.76113488816767   -3.20796027151746
S          -6.38729167073313  -14.32257946794939   -3.82991618833759
C          -7.40604111714701  -16.86660203741598   -4.06705065162798
C          -7.00532578341537  -16.99108324613097   -5.38625725000032
C          -7.44819817711019  -18.18309808029653   -5.95423286568574
C          -8.19111283680122  -18.97376223836578   -5.05967899666404
S          -8.33100167721440  -18.25344183330193   -3.51491417037446
C          -8.63475042621620  -20.13278198076130   -5.74105893401934
C          -8.17192661160243  -20.07251102883884   -7.07393636597157
C          -7.38810425424267  -18.86111781764318   -7.24136314892784
C          -6.72142717571411  -18.44815208541612   -8.35622898020476
C          -6.67891384967745  -19.20452379580727   -9.54805186758712
N          -6.60706610121433  -19.81111654402894  -10.51785969217758
C          -5.99706518247606  -17.23700862114786   -8.38234715320472
N          -5.41161283902099  -16.25126003990214   -8.39923891161374
C          -8.61299585197589  -21.13333373518241   -7.85444623177957
C          -9.41303410691282  -22.01187831675692   -7.13817101463956
S          -9.57411544161537  -21.51868596786646   -5.44699686348561
C         -10.06136751840526  -23.20576707800855   -7.52185049987030
C         -10.40935055547935  -23.62052147070257   -8.77576243448563
C         -10.99043000027858  -24.91474101541689   -9.08769547317409
C         -10.98052424535558  -26.02663710266209   -8.28777447079598
C         -10.38452748856570  -26.10448297606191   -7.01091450826042
N          -9.90509618241464  -26.24909559077300   -5.97738956451701
C         -11.54163985336969  -27.26861379626550   -8.65362341563709
N         -11.98181230782344  -28.30267206470527   -8.88726734114532
C         -11.51065870678553  -24.85141438659013  -10.45027822764257
C         -11.19943128477246  -23.59222956978130  -10.99314541167682
C         -10.48082993436432  -22.77759701310069  -10.00101295681495
O         -10.10189694318185  -21.63538876788622  -10.14729758389609
C         -11.56521394489197  -23.25635231510703  -12.28240888383946
C         -12.24894583586447  -24.19583668832757  -13.03759779628481
C         -12.57208514375352  -25.44721138932099  -12.51701202040018
C         -12.20086123225373  -25.77686266677971  -11.21303292594610
C         -13.33510369944028  -26.43813275939482  -13.33628060131845
H          -4.02808259164204    3.35609741544088    3.59720649334089
H          -3.58398199476872    4.96578862657154    1.76316296073351
H          -4.91968690722469    2.12724309563580   -1.13479645246089
H          -3.73811932269202    5.60477668655288   -0.51475803481040
H          -4.74956940185074    4.64177970778305   -1.60562810306108
H          -3.03862012024923    4.27566356475079   -1.44352693282454
H          -5.41919852963154   -1.75950247301916    3.78500017700068
H          -4.46774046986494   -2.31480976345315    0.08372818384135
H          -4.94268717157802   -8.05451295780959   -2.13914820259917
H          -6.95452855222350  -10.87030899119599    1.25129448499248
H          -8.07193397645277  -16.39816766903102   -1.34008018580663
H          -6.42920617267150  -16.23798176187286   -5.89326883190766
H          -8.37465284435737  -21.27158846645981   -8.89186759710234
H         -10.34503109602299  -23.84179098941467   -6.69109281970293
H         -11.31310918962093  -22.28543745020387  -12.68009516523530
H         -12.53902872824910  -23.95668607909218  -14.05018788293288
H         -12.46278066500568  -26.74614491391740  -10.82002253864036
H         -13.26063893028892  -26.21124115875660  -14.39654145260962
H         -14.38853659190869  -26.41375556267148  -13.05573318251508
H         -12.96947305256300  -27.44701790998176  -13.15945175254312
