# ORCA input file
# SCF done       -211.570685865170          0.000430355178
! CAM-B3LYP def2-SVP def2/J RIJCOSX Grid4 TightSCF
%maxcore 5000
%tddft
    Mode sTDDFT
    Ethresh 5.0
    maxcore 5000
end

%pal
  nprocs 6
  end
* xyz 0 1
   C       -0.20762         0.23903         0.12876
   O       -0.40035        -0.24724         1.22130
   C       -0.04039         1.68088        -0.15141
   C        0.14152         1.88249        -1.52942
   C        0.30328         3.16977        -2.01568
   C        0.28417         4.22892        -1.11515
   C        0.10870         4.01595         0.25425
   C       -0.05763         2.72801         0.74602
  Br        0.09133         5.47522         1.45397
  Br        0.49908         5.98550        -1.77982
   C        0.12186         0.58427        -2.19986
   C        0.37610         0.38599        -3.53142
   C        0.63517         1.42875        -4.44793
   N        0.84440         2.23002        -5.24204
   C        0.44929        -0.86345        -4.18474
   N        0.54524        -1.83551        -4.78857
   C       -0.14296        -0.42909        -1.19118
   C       -0.40993        -1.74168        -1.48180
   C       -0.62410        -2.84818        -0.64057
   C       -0.45008        -3.04341         0.72586
   C       -0.78052        -4.33140         1.11696
   C       -1.21927        -5.14527         0.04457
   S       -1.19283        -4.32523        -1.44117
   C       -1.57553        -6.41234         0.56014
   C       -1.36443        -6.40857         1.95140
   C       -0.83715        -5.10909         2.34343
   C       -0.46052        -4.72427         3.59535
   C       -0.57555        -5.59254         4.70273
   N       -0.67109        -6.30077         5.59920
   C        0.09042        -3.45508         3.88027
   N        0.56027        -2.44255         4.13842
   C       -1.71667        -7.61182         2.55623
   C       -2.19453        -8.53201         1.63740
   S       -2.19877        -7.90332        -0.00119
   C       -2.67453        -9.83761         1.90664
   C       -3.13950       -10.77435         1.00018
   C       -3.56987       -11.94002         1.63118
   C       -3.43154       -11.88704         3.02992
   S       -2.76342       -10.41142         3.56663
   C       -3.92241       -13.09655         3.57854
   C       -4.36933       -13.91961         2.52910
   C       -4.15394       -13.22284         1.26915
   C       -4.43945       -13.67228         0.01461
   C       -5.00426       -14.94526        -0.21666
   N       -5.46085       -15.97964        -0.40341
   C       -4.18405       -12.89145        -1.13324
   N       -3.97530       -12.25266        -2.06184
   C       -4.90141       -15.12843         2.97432
   C       -4.86637       -15.23011         4.35586
   S       -4.15295       -13.81223         5.10946
   C       -5.35246       -16.29432         5.15850
   C       -5.96367       -17.46301         4.73048
   C       -6.34654       -18.26890         5.80012
   C       -6.02441       -17.71311         7.05243
   S       -5.24673       -16.20029         6.90794
   C       -6.47626       -18.58575         8.07016
   C       -7.08401       -19.70270         7.45746
   C       -7.02985       -19.53589         6.01566
   C       -7.55805       -20.37314         5.07830
   C       -8.23441       -21.55392         5.45307
   N       -8.77936       -22.50767         5.78146
   C       -7.46670       -20.11008         3.69493
   N       -7.38508       -19.89367         2.57252
   C       -7.60774       -20.60253         8.37355
   C       -7.41832       -20.18850         9.68600
   S       -6.53110       -18.66800         9.76751
   C       -7.80035       -20.82443        10.88358
   C       -8.72178       -21.81176        11.07811
   C       -8.65377       -22.60349        12.33735
   O       -7.99760       -22.34874        13.31883
   C       -9.51536       -23.78087        12.09793
   C      -10.14981       -23.65063        10.84880
   C       -9.78728       -22.35856        10.26521
   C      -10.52148       -21.70782         9.30871
   C      -10.31690       -20.36561         8.93350
   N      -10.20479       -19.26824         8.61573
   C      -11.63882       -22.27287         8.65609
   N      -12.55486       -22.68442         8.10229
   C      -10.97640       -24.65960        10.38607
   C      -11.16909       -25.77969        11.18758
   C      -10.55288       -25.89169        12.43637
   C       -9.71338       -24.88617        12.89905
  Br      -10.84674       -27.41686        13.51200
  Br      -12.28762       -27.16509        10.55606
   H        0.43800         3.37666        -3.06475
   H       -0.19574         2.54624         1.80064
   H       -0.49600        -1.98706        -2.53397
   H       -0.11097        -2.26384         1.38345
   H       -1.64198        -7.82441         3.60756
   H       -3.16050       -10.59770        -0.06031
   H       -5.30154       -15.89493         2.33705
   H       -6.12142       -17.70155         3.69508
   H       -8.06816       -21.53889         8.11657
   H       -7.24943       -20.54000        11.77525
   H      -11.46083       -24.60799         9.42420
   H       -9.22839       -24.96583        13.85953
*
