180
 SCF done       -297.844646081472          0.000519542324
C           7.50904487291983    4.23208710315622    4.38431020142894
C           8.24762418747273    4.76996447006723    5.40649249640503
C           9.60345053651738    4.46011485614247    5.64441767413203
N          10.70382184828100    4.25300706929222    5.89933957498421
C           7.80916183397470    5.73010158328090    6.34322432431951
N           7.55713494580906    6.52330205769069    7.13528248172874
C           8.02932408155861    3.31711717461921    3.37483654583649
C           7.02301817592854    3.11967984632970    2.38988402863271
C           7.21796587618978    2.31488852725510    1.30510567211679
C           8.45389971699461    1.64702218594086    1.15769136026936
C           9.46521412734188    1.83153168297904    2.14379024604935
C           9.23485659930211    2.67793495512499    3.25285568965683
C          10.69284749945283    1.15554898722850    1.99069811552219
C          10.91266329638020    0.33706178725909    0.91646064940822
C           9.91601226626671    0.15668994908439   -0.05414815885045
C           8.71306447303819    0.79824720693790    0.06377374391143
C           5.81868653557153    3.88823312648726    2.75009248787690
O           4.81341498590359    3.97154398320973    2.07323131626194
C           6.11420090071119    4.50601055562375    4.06575596541805
C           5.26189636047733    5.13475141853561    4.93161296956261
C           3.89320017422693    5.46526079058834    4.82841491372029
C           2.98632594401665    5.35439039947275    3.80139636290309
C           1.69616397116420    5.80924722717893    4.13182305834549
C           1.60839335455904    6.26152656830027    5.47743093891815
S           3.15030347936559    6.16159545740524    6.27309247366021
C           0.43373926589466    6.73511679618555    6.04005619331000
C           0.37951117962347    7.24810619171436    7.41572339349072
C          -0.15432467276378    8.50683627156862    7.67823995156288
C          -0.19586516321627    8.99450525124691    8.96972230071040
C           0.28738861693240    8.24219619862592   10.03337868517889
C           0.81955810072523    6.98623876190816    9.76713042613435
C           0.86981366646945    6.49419191415520    8.47782894161598
C           0.26075773130014    8.78029398148143   11.43061515456394
C          -0.70769264861673    6.71320745551442    5.22132213759340
C          -0.62021425207451    6.25973358113128    3.87829708289129
C           0.55745232368940    5.82477385521952    3.29917998838332
C           0.63826241811008    5.39937041294814    1.89723041624870
C           1.61146746445893    5.92971441266027    1.05210748381186
C           1.69083966939751    5.52373757769714   -0.26362300807108
C           0.80955591978072    4.57666380218262   -0.77520801679926
C          -0.16243747972938    4.05538835538147    0.06763985040728
C          -0.25256387364396    4.46124371444002    1.38559905860994
C           0.92379619907939    4.13398069866768   -2.20134633064043
S          -2.16930186288092    6.35670056771956    3.07618402437775
C          -2.92238806010140    6.94636835760550    4.54494110465313
C          -2.03059618304746    7.07794247855438    5.56921010144867
C          -4.32598683799489    7.18969159936792    4.57521563063678
C          -5.21214901725552    7.06824590508290    3.54612111508755
C          -6.55446007281448    7.32900663555527    3.91718850082394
C          -6.66501189960002    7.67860340355758    5.28718785767138
S          -5.10628891407339    7.66171996790486    6.07366883633772
C          -7.86514190433564    8.01592097118446    5.89091258005560
C          -7.94800616239924    8.40888853133786    7.30380409204592
C          -8.58816764701608    9.58940726442060    7.67001564985670
C          -8.66332038443321    9.96479043640791    8.99785997181466
C          -8.10617630053803    9.17554682761476    9.99527249926555
C          -7.46389902464960    7.99875093406289    9.62544247043858
C          -7.38165943274623    7.61913767988092    8.30089221112556
C          -8.19336837624907    9.56750017114543   11.43832240178476
C          -9.00959407283365    7.97291029796290    5.07579574665888
C          -8.89761575506962    7.63386819481234    3.70403627362465
C          -7.69580535716634    7.30263782815035    3.09880446685385
C          -7.62000498311404    6.92141701452025    1.68261585707569
C          -8.18930474298532    7.72566151058327    0.69982353935661
C          -8.11725632906303    7.36294372145426   -0.63092945814345
C          -7.48259253744415    6.18946640651479   -1.01881697691555
C          -6.92391276391532    5.38344985794215   -0.03391071476804
C          -6.98895116469980    5.74110604890264    1.29821287596145
C          -7.42420649189692    5.78796117784570   -2.46052787618376
S         -10.45889011334896    7.62000382027922    2.92688804557949
C         -11.24750918039040    8.02681699264994    4.43667747150390
C         -10.35681715388259    8.18007218340382    5.46050916187806
C         -12.66841730397131    8.15041203471475    4.49971469781440
C         -13.43263962241711    8.34451489092848    5.61589060109540
C         -14.82083478155223    8.40276053748558    5.34968070565088
C         -15.10421115807097    8.21774423882966    3.97043755311206
S         -13.63473966986684    8.02914387213756    3.04654649696425
C         -16.38725929333857    8.21804386800508    3.45327882497118
C         -16.65569730032903    8.09361510559488    2.01655405895989
C         -16.06849400524496    7.07990982286071    1.26548487472521
C         -16.32258148854251    6.97401938434082   -0.08866724348022
C         -17.15986910949516    7.87621916824759   -0.73091669529400
C         -17.73969088692548    8.89254535334565    0.02148718258491
C         -17.49604658957881    9.00206197131035    1.37460268231907
C         -17.44752121831824    7.76412989886302   -2.19639315930416
C         -17.43757007517835    8.36297481708046    4.38410396323740
C         -17.15304549847681    8.54246503905598    5.76661629500402
C         -15.86439459402647    8.59015737522994    6.27259438523952
C         -15.58970606997043    8.82852532122645    7.69622165163373
C         -16.20886610906028    8.06264466150295    8.68025976216277
C         -15.93858210480901    8.28776853242114   10.01514467921871
C         -15.05032239598002    9.28263753568967   10.40837409189396
C         -14.44224935584327   10.05168294542127    9.42459831132330
C         -14.70499388492764    9.82995394835465    8.08630741498484
C         -14.77659094185802    9.52340061202739   11.86095308795955
S         -18.61562812693457    8.71273684513298    6.68988202324696
C         -19.60179963767344    8.49813772800186    5.23939324270669
C         -18.81977429431534    8.32254724294772    4.12213715113894
C         -20.99911952958389    8.48404621655592    5.43642619862158
C         -22.04215925874880    8.40834009319161    4.55376067221833
C         -23.43529280306401    8.34447793749050    4.97175488238971
C         -23.91239138493829    8.12631899568582    6.23901993380962
C         -25.28392187852315    8.06697846838089    6.56470300454742
N         -26.37918909835572    8.01271515938110    6.90569689757455
C         -23.14371070199065    7.89037931229613    7.39863753604840
N         -22.61358077454918    7.66750354984783    8.39359122819400
C         -24.26929888140849    8.47813316990248    3.78272910914306
C         -23.41916514500142    8.54423879053076    2.64484891999096
C         -22.01085359952368    8.48007628871466    3.07308424498059
O         -21.05066316391062    8.50641119337016    2.32926337331376
C         -23.91209652476549    8.65105019303713    1.37673479793846
C         -25.31060235164416    8.70109429955713    1.18410724678579
C         -26.17020434713941    8.64691855132826    2.31860733953127
C         -25.62835305546109    8.53521898044442    3.61986353822288
C         -27.56432640761397    8.70148374301402    2.11653568012003
C         -28.08594014960973    8.80091185253070    0.85548146818989
C         -27.23831768677568    8.85198554721739   -0.26111382703789
C         -25.88021391604207    8.80372113942228   -0.10010130532765
H           6.43595186525549    2.18675661191331    0.57127796685840
H          10.02040139445382    2.79169387122535    3.98253179227651
H          11.45767457233673    1.29839219485281    2.73997654983952
H          11.85634435965714   -0.17645869222885    0.80861802474334
H          10.10611844063976   -0.49326130246615   -0.89529065177660
H           7.94123475832399    0.66340457512286   -0.68004930601816
H           5.68449943797080    5.41389081530180    5.89022160241596
H           3.24243049136646    4.94014136503716    2.84391807905652
H          -0.51738168828212    9.11284661154896    6.86056579588297
H          -0.60875798848504    9.97604034495514    9.15489054103194
H           1.19864666053120    6.38542454099470   10.58128611021455
H           1.27235420183433    5.50909207994860    8.29356222128347
H          -0.52399042631597    9.52413954728978   11.54669891924206
H           1.21460250649905    9.25536933813659   11.66248444016188
H           0.10176213451516    7.98101015178327   12.15112430439350
H           2.29249878354710    6.67943249584784    1.42714591125953
H           2.45032468911766    5.94430381719769   -0.90683686744210
H          -0.85635555414211    3.31722243688948   -0.30871343741295
H          -1.00211059659658    4.02740721180542    2.03092684452206
H           1.87333055860689    3.62358612300251   -2.36017152554883
H           0.89313987798383    4.99248312627883   -2.87082633556742
H           0.11731287907149    3.45491233007882   -2.46618591894132
H          -2.31911719169952    7.40925079759400    6.55101812734772
H          -4.90824668304699    6.81045550737304    2.54712015146756
H          -9.00826802553323   10.22638403590968    6.90483286128639
H          -9.15997938651209   10.88790764110252    9.26185750218987
H          -7.02433003658341    7.37220915976997   10.38833961544267
H          -6.89232542689674    6.69364342731118    8.03585970119091
H          -8.62517323140376   10.55901047648791   11.54870736908717
H          -7.20480591731037    9.56304270175813   11.89474825119162
H          -8.81396589695756    8.85719381633734   11.98450253038259
H          -8.67159765494478    8.65071868268225    0.97938313059496
H          -8.55859120140111    8.00317320675378   -1.38127542409063
H          -6.43226032422252    4.46279627845990   -0.31482317473549
H          -6.56789912085705    5.09175478478228    2.05217156919401
H          -7.44464878812210    6.66133439283780   -3.10819046359355
H          -8.28481558987038    5.16511996248507   -2.70746177083181
H          -6.52377083983070    5.21403853274917   -2.66749204775481
H         -10.64931865787609    8.41497050402043    6.46736305909770
H         -13.02237351681694    8.41806586102228    6.60613886230401
H         -15.43048259970675    6.35510725034974    1.74922837194659
H         -15.86382215748860    6.17479909229899   -0.65315439132255
H         -18.39188885693488    9.60574021076848   -0.46129718358861
H         -17.94067317714246    9.80908633221535    1.93752382292575
H         -16.82500681844789    7.00303379189560   -2.65994013814164
H         -17.26828705992380    8.71568822151831   -2.69459227500324
H         -18.49287847123617    7.49903669442329   -2.35365724546304
H         -16.88828496503971    7.27319075608513    8.39542122842392
H         -16.42241693530773    7.68049275005375   10.76638938698154
H         -13.75475941899013   10.83599456566713    9.70881833777796
H         -14.23848310641950   10.45076200317793    7.33469169701135
H         -15.62883041064976   10.02160926569414   12.32342315611748
H         -13.89938678014498   10.15171255733155   11.99454845065405
H         -14.61929902507525    8.58165017420741   12.38347702312626
H         -19.23359144899156    8.15458285633749    3.14533962633125
H         -21.27089571717225    8.55260125554262    6.48363092153332
H         -23.24183077171640    8.69484319410642    0.53098119938700
H         -26.30795672894958    8.50024294971354    4.45606586256005
H         -28.21295514963138    8.66027540296382    2.97931533348151
H         -29.15530437583108    8.84018085220661    0.71125184254587
H         -27.66685250475840    8.92978504778686   -1.24924913808617
H         -25.22213307561932    8.84295434115309   -0.95600470295413
