# ORCA input file
# SCF done       -297.844646081472          0.000519542324
! CAM-B3LYP def2-SVP def2/J RIJCOSX Grid4 TightSCF
%maxcore 5000
%tddft
    Mode sTDDFT
    Ethresh 5.0
    maxcore 5000
end

%pal
  nprocs 6
  end
* xyz 0 1
   C        7.50904         4.23209         4.38431
   C        8.24762         4.76996         5.40649
   C        9.60345         4.46011         5.64442
   N       10.70382         4.25301         5.89934
   C        7.80916         5.73010         6.34322
   N        7.55713         6.52330         7.13528
   C        8.02932         3.31712         3.37484
   C        7.02302         3.11968         2.38988
   C        7.21797         2.31489         1.30511
   C        8.45390         1.64702         1.15769
   C        9.46521         1.83153         2.14379
   C        9.23486         2.67793         3.25286
   C       10.69285         1.15555         1.99070
   C       10.91266         0.33706         0.91646
   C        9.91601         0.15669        -0.05415
   C        8.71306         0.79825         0.06377
   C        5.81869         3.88823         2.75009
   O        4.81341         3.97154         2.07323
   C        6.11420         4.50601         4.06576
   C        5.26190         5.13475         4.93161
   C        3.89320         5.46526         4.82841
   C        2.98633         5.35439         3.80140
   C        1.69616         5.80925         4.13182
   C        1.60839         6.26153         5.47743
   S        3.15030         6.16160         6.27309
   C        0.43374         6.73512         6.04006
   C        0.37951         7.24811         7.41572
   C       -0.15432         8.50684         7.67824
   C       -0.19587         8.99451         8.96972
   C        0.28739         8.24220        10.03338
   C        0.81956         6.98624         9.76713
   C        0.86981         6.49419         8.47783
   C        0.26076         8.78029        11.43062
   C       -0.70769         6.71321         5.22132
   C       -0.62021         6.25973         3.87830
   C        0.55745         5.82477         3.29918
   C        0.63826         5.39937         1.89723
   C        1.61147         5.92971         1.05211
   C        1.69084         5.52374        -0.26362
   C        0.80956         4.57666        -0.77521
   C       -0.16244         4.05539         0.06764
   C       -0.25256         4.46124         1.38560
   C        0.92380         4.13398        -2.20135
   S       -2.16930         6.35670         3.07618
   C       -2.92239         6.94637         4.54494
   C       -2.03060         7.07794         5.56921
   C       -4.32599         7.18969         4.57522
   C       -5.21215         7.06825         3.54612
   C       -6.55446         7.32901         3.91719
   C       -6.66501         7.67860         5.28719
   S       -5.10629         7.66172         6.07367
   C       -7.86514         8.01592         5.89091
   C       -7.94801         8.40889         7.30380
   C       -8.58817         9.58941         7.67002
   C       -8.66332         9.96479         8.99786
   C       -8.10618         9.17555         9.99527
   C       -7.46390         7.99875         9.62544
   C       -7.38166         7.61914         8.30089
   C       -8.19337         9.56750        11.43832
   C       -9.00959         7.97291         5.07580
   C       -8.89762         7.63387         3.70404
   C       -7.69581         7.30264         3.09880
   C       -7.62000         6.92142         1.68262
   C       -8.18930         7.72566         0.69982
   C       -8.11726         7.36294        -0.63093
   C       -7.48259         6.18947        -1.01882
   C       -6.92391         5.38345        -0.03391
   C       -6.98895         5.74111         1.29821
   C       -7.42421         5.78796        -2.46053
   S      -10.45889         7.62000         2.92689
   C      -11.24751         8.02682         4.43668
   C      -10.35682         8.18007         5.46051
   C      -12.66842         8.15041         4.49971
   C      -13.43264         8.34451         5.61589
   C      -14.82083         8.40276         5.34968
   C      -15.10421         8.21774         3.97044
   S      -13.63474         8.02914         3.04655
   C      -16.38726         8.21804         3.45328
   C      -16.65570         8.09362         2.01655
   C      -16.06849         7.07991         1.26548
   C      -16.32258         6.97402        -0.08867
   C      -17.15987         7.87622        -0.73092
   C      -17.73969         8.89255         0.02149
   C      -17.49605         9.00206         1.37460
   C      -17.44752         7.76413        -2.19639
   C      -17.43757         8.36297         4.38410
   C      -17.15305         8.54247         5.76662
   C      -15.86439         8.59016         6.27259
   C      -15.58971         8.82853         7.69622
   C      -16.20887         8.06264         8.68026
   C      -15.93858         8.28777        10.01514
   C      -15.05032         9.28264        10.40837
   C      -14.44225        10.05168         9.42460
   C      -14.70499         9.82995         8.08631
   C      -14.77659         9.52340        11.86095
   S      -18.61563         8.71274         6.68988
   C      -19.60180         8.49814         5.23939
   C      -18.81977         8.32255         4.12214
   C      -20.99912         8.48405         5.43643
   C      -22.04216         8.40834         4.55376
   C      -23.43529         8.34448         4.97175
   C      -23.91239         8.12632         6.23902
   C      -25.28392         8.06698         6.56470
   N      -26.37919         8.01272         6.90570
   C      -23.14371         7.89038         7.39864
   N      -22.61358         7.66750         8.39359
   C      -24.26930         8.47813         3.78273
   C      -23.41917         8.54424         2.64485
   C      -22.01085         8.48008         3.07308
   O      -21.05066         8.50641         2.32926
   C      -23.91210         8.65105         1.37673
   C      -25.31060         8.70109         1.18411
   C      -26.17020         8.64692         2.31861
   C      -25.62835         8.53522         3.61986
   C      -27.56433         8.70148         2.11654
   C      -28.08594         8.80091         0.85548
   C      -27.23832         8.85199        -0.26111
   C      -25.88021         8.80372        -0.10010
   H        6.43595         2.18676         0.57128
   H       10.02040         2.79169         3.98253
   H       11.45767         1.29839         2.73998
   H       11.85634        -0.17646         0.80862
   H       10.10612        -0.49326        -0.89529
   H        7.94123         0.66340        -0.68005
   H        5.68450         5.41389         5.89022
   H        3.24243         4.94014         2.84392
   H       -0.51738         9.11285         6.86057
   H       -0.60876         9.97604         9.15489
   H        1.19865         6.38542        10.58129
   H        1.27235         5.50909         8.29356
   H       -0.52399         9.52414        11.54670
   H        1.21460         9.25537        11.66248
   H        0.10176         7.98101        12.15112
   H        2.29250         6.67943         1.42715
   H        2.45032         5.94430        -0.90684
   H       -0.85636         3.31722        -0.30871
   H       -1.00211         4.02741         2.03093
   H        1.87333         3.62359        -2.36017
   H        0.89314         4.99248        -2.87083
   H        0.11731         3.45491        -2.46619
   H       -2.31912         7.40925         6.55102
   H       -4.90825         6.81046         2.54712
   H       -9.00827        10.22638         6.90483
   H       -9.15998        10.88791         9.26186
   H       -7.02433         7.37221        10.38834
   H       -6.89233         6.69364         8.03586
   H       -8.62517        10.55901        11.54871
   H       -7.20481         9.56304        11.89475
   H       -8.81397         8.85719        11.98450
   H       -8.67160         8.65072         0.97938
   H       -8.55859         8.00317        -1.38128
   H       -6.43226         4.46280        -0.31482
   H       -6.56790         5.09175         2.05217
   H       -7.44465         6.66133        -3.10819
   H       -8.28482         5.16512        -2.70746
   H       -6.52377         5.21404        -2.66749
   H      -10.64932         8.41497         6.46736
   H      -13.02237         8.41807         6.60614
   H      -15.43048         6.35511         1.74923
   H      -15.86382         6.17480        -0.65315
   H      -18.39189         9.60574        -0.46130
   H      -17.94067         9.80909         1.93752
   H      -16.82501         7.00303        -2.65994
   H      -17.26829         8.71569        -2.69459
   H      -18.49288         7.49904        -2.35366
   H      -16.88828         7.27319         8.39542
   H      -16.42242         7.68049        10.76639
   H      -13.75476        10.83599         9.70882
   H      -14.23848        10.45076         7.33469
   H      -15.62883        10.02161        12.32342
   H      -13.89939        10.15171        11.99455
   H      -14.61930         8.58165        12.38348
   H      -19.23359         8.15458         3.14534
   H      -21.27090         8.55260         6.48363
   H      -23.24183         8.69484         0.53098
   H      -26.30796         8.50024         4.45607
   H      -28.21296         8.66028         2.97932
   H      -29.15530         8.84018         0.71125
   H      -27.66685         8.92979        -1.24925
   H      -25.22213         8.84295        -0.95600
*
