# ORCA input file
# SCF done       -271.225952782893          0.000921388611
! CAM-B3LYP def2-SVP def2/J RIJCOSX Grid4 TightSCF
%maxcore 5000
%tddft
    Mode sTDDFT
    Ethresh 5.0
    maxcore 5000
end

%pal
  nprocs 6
  end
* xyz 0 1
   C       -4.53979         3.58676        -8.90996
   C       -4.28068         2.24659        -9.06699
   C       -4.86541         1.44111       -10.06493
   N       -5.30218         0.72585       -10.85084
   C       -3.40206         1.47506        -8.28112
   N       -2.70754         0.77236        -7.69289
   C       -5.44840         4.36656        -9.74773
   C       -5.42148         5.71941        -9.30471
   C       -6.17269         6.69185        -9.89652
   C       -7.00909         6.34853       -10.98306
   C       -7.04662         4.99741       -11.43103
   C       -6.25284         4.01230       -10.79705
   C       -7.88707         4.66459       -12.51217
   C       -8.65405         5.61933       -13.12340
   C       -8.61551         6.94983       -12.68181
   C       -7.81028         7.30652       -11.63398
   C       -4.49806         5.83207        -8.16405
   O       -4.23331         6.85312        -7.55021
   C       -3.97700         4.48372        -7.92381
   C       -3.11726         4.12620        -6.91090
   C       -2.52885         4.89543        -5.90351
   C       -1.69920         4.32938        -4.92325
   C       -1.21486         5.22802        -3.99733
   C       -1.68039         6.53244        -4.28244
   S       -2.69750         6.62507        -5.65554
   C       -1.24319         7.52737        -3.38223
   C       -0.43157         7.09791        -2.32431
  Si       -0.14442         5.25193        -2.46128
   C       -0.88766         4.27044        -1.06040
   C       -2.27254         4.11542        -0.94363
   C       -2.82866         3.38782         0.09095
   C       -2.01174         2.79458         1.03931
   C       -0.63737         2.93598         0.94591
   C       -0.08493         3.66524        -0.09020
   C        1.64347         4.82425        -2.76669
   C        2.63034         5.80528        -2.89311
   C        3.95323         5.46872        -3.11209
   C        4.32374         4.13848        -3.21236
   C        3.36287         3.14777        -3.09283
   C        2.04205         3.48835        -2.87317
   C       -0.06498         8.15959        -1.50066
   C       -0.56581         9.38240        -1.91259
   S       -1.53427         9.22555        -3.35725
   C       -0.35770        10.65016        -1.31472
   C       -0.73973        11.89211        -1.78606
   C       -0.35183        12.95006        -0.96399
   C        0.33173        12.49008         0.16679
   S        0.50124        10.77896         0.20388
   C        0.77725        13.48602         1.06650
   C        0.49556        14.80691         0.70289
  Si       -0.44740        14.82132        -0.91485
   C        0.48611        15.66724        -2.28745
   C        1.72799        16.27161        -2.07627
   C        2.39617        16.91585        -3.10087
   C        1.83860        16.97000        -4.36699
   C        0.60961        16.37520        -4.60164
   C       -0.05564        15.73389        -3.57453
   C       -2.19946        15.43861        -0.75008
   C       -2.58979        16.66461        -1.29423
   C       -3.88651        17.12607        -1.16716
   C       -4.82845        16.37073        -0.48906
   C       -4.46495        15.15215         0.06023
   C       -3.16785        14.69416        -0.06928
   C        0.99685        15.70857         1.64117
   C        1.64071        15.10557         2.70526
   S        1.63196        13.36262         2.55364
   C        2.26897        15.72416         3.81400
   C        2.80065        15.11474         4.93698
   C        3.36051        16.00632         5.84849
   C        3.26130        17.32790         5.39413
   S        2.46569        17.45785         3.87091
   C        3.83150        18.31277         6.22755
   C        4.41714        17.83320         7.41748
  Si        4.20985        15.97668         7.52029
   C        3.06666        15.46105         8.89865
   C        2.21290        14.36339         8.75776
   C        1.38717        13.95902         9.78947
   C        1.39532        14.64461        10.99289
   C        2.23347        15.73494        11.15588
   C        3.05790        16.13746        10.12183
   C        5.81320        15.02559         7.50390
   C        6.79337        15.27798         6.53843
   C        7.98363        14.57671         6.52566
   C        8.22482        13.60195         7.48045
   C        7.26864        13.33429         8.44559
   C        6.07900        14.03826         8.45576
   C        4.96531        18.85920         8.16593
   C        4.82103        20.12079         7.59288
   S        3.96901        20.00673         6.05081
   C        5.25229        21.39726         7.97711
   C        5.85297        21.84510         9.13024
   C        6.31622        23.20876         9.30465
   C        6.45675        24.16977         8.33310
   C        6.92744        25.47557         8.57928
   N        7.29806        26.55572         8.70421
   C        6.20116        24.00958         6.95588
   N        6.04495        23.97073         5.81770
   C        6.69624        23.38112        10.70318
   C        6.53941        22.13196        11.36389
   C        6.03523        21.12807        10.40911
   O        5.80493        19.96319        10.67566
   C        6.82963        21.97011        12.68695
   C        7.29965        23.07737        13.42834
   C        7.45433        24.33415        12.77686
   C        7.14482        24.46904        11.40314
   C        7.92243        25.43275        13.52554
   C        8.22491        25.29806        14.85333
   C        8.07174        24.05972        15.49380
   C        7.61888        22.97297        14.79609
   H       -6.13221         7.71022        -9.53922
   H       -6.30631         2.99901       -11.16166
   H       -7.91307         3.63849       -12.84899
   H       -9.29444         5.35389       -13.95133
   H       -9.22652         7.69098       -13.17556
   H       -7.77652         8.32975       -11.28870
   H       -2.84435         3.07930        -6.85379
   H       -1.47945         3.27567        -4.91558
   H       -2.91593         4.57184        -1.68278
   H       -3.90152         3.27967         0.15824
   H       -2.44474         2.22298         1.84709
   H        0.00483         2.47481         1.68233
   H        0.98887         3.76820        -0.15818
   H        2.35032         6.84621        -2.81510
   H        4.69837         6.24566        -3.20458
   H        5.35708         3.87409        -3.38275
   H        3.64570         2.10804        -3.17080
   H        1.29856         2.70980        -2.77810
   H        0.55450         8.06046        -0.62620
   H       -1.27915        12.00998        -2.70950
   H        2.16972        16.23576        -1.09070
   H        3.35379        17.37889        -2.91163
   H        2.35882        17.47421        -5.16809
   H        0.16970        16.41410        -5.58768
   H       -1.01650        15.27646        -3.76374
   H       -1.86081        17.25844        -1.82732
   H       -4.16440        18.07695        -1.59830
   H       -5.84238        16.72958        -0.38983
   H       -5.19623        14.55828         0.58929
   H       -2.89185        13.74076         0.35920
   H        0.89813        16.77755         1.56498
   H        2.77448        14.04725         5.07028
   H        2.20023        13.82408         7.82140
   H        0.73445        13.10824         9.65598
   H        0.74909        14.33091        11.79969
   H        2.24356        16.27410        12.09191
   H        3.70641        16.99036        10.25819
   H        6.61226        16.03865         5.79206
   H        8.72669        14.78889         5.77051
   H        9.15449        13.05218         7.47064
   H        7.45185        12.57533         9.19229
   H        5.33770        13.82729         9.21374
   H        5.46493        18.72120         9.10659
   H        5.06378        22.15330         7.22369
   H        6.70266        21.00853        13.16207
   H        7.26894        25.43591        10.94246
   H        8.03949        26.38430        13.02772
   H        8.58414        26.14577        15.41758
   H        8.31448        23.97087        16.54235
   H        7.49893        22.01612        15.28335
*
