162
 SCF done       -285.477836691641          0.000978651468
C           3.85203369278013    2.51041866408228   -3.20530577544601
C           4.22890886561360    1.78021710662620   -2.10636868201258
C           5.16640648376198    0.72693440724819   -2.14193235632477
N           5.91742150860352   -0.14082018305801   -2.09624038756147
C           3.74354820969579    1.94468176583637   -0.79290025316928
N           3.39734657933932    1.99936219514295    0.30163087645986
C           4.34061882236265    2.29361349312478   -4.56354669024158
C           3.67172779960578    3.19827589046826   -5.43605873785116
C           3.92261712284387    3.23177417165934   -6.77685212921115
C           4.87822598129662    2.34405181373419   -7.32013329343201
C           5.55319644729744    1.43524864756994   -6.45557346252295
C           5.26948214440659    1.42362460242506   -5.07019248883196
C           6.50518824890086    0.55414071670086   -7.00733271452266
C           6.77942409420044    0.56937068623382   -8.34788799467203
C           6.11515716228595    1.46587500966818   -9.19792489588642
C           5.18442662239623    2.33407974441091   -8.69489850455112
C           2.73874440023328    4.02599604729373   -4.65456803103458
O           1.99136427548644    4.87843797621910   -5.09503003909207
C           2.89821328094403    3.60429629810508   -3.25098101685092
C           2.28714754151181    4.16852985197995   -2.16519017988706
C           1.37156480552432    5.23565312192917   -2.07670433146744
C           0.88043649335080    5.66507283629062   -0.85567395769289
C          -0.01459760345803    6.73989063980174   -0.94071748690685
C          -0.64793254887408    7.43230106931612    0.12238466365881
C          -0.53737278936992    6.96433504000041    1.48516965724552
C          -0.56995034453575    5.67220123126346    1.93542853643495
C          -0.44472318721226    5.56419874944819    3.33324444963706
C          -0.30962918196534    6.76560773131577    3.95922133837619
S          -0.35107371660793    8.07079589871492    2.81914492051705
C          -0.14885988135827    7.03921750204413    5.41077858928968
C          -1.37645059316597    8.55660374816267   -0.23285827614955
C          -1.54913741294702    8.98773460035790   -1.57574787692312
C          -0.94640976975960    8.27885396195154   -2.63417901073824
C          -0.18942138193312    7.16217171312679   -2.28511832250574
S           0.71552514626598    6.17671668687115   -3.39935141083875
C          -1.06247386640601    8.68572478309603   -4.01920095622045
C          -1.15674584687973    7.88707059777821   -5.12483592833870
C          -1.19098803620216    8.60648335791474   -6.33522632729380
C          -1.10687405242442    9.95410384493488   -6.16967073614548
S          -0.99787640399874   10.36510914892846   -4.48986395035724
C          -1.09835274466878   11.01938279627831   -7.20613342313365
C          -2.39208417289828   10.12059651179929   -1.65349550938900
C          -2.83357300623388   10.56486952567521   -0.44112378734165
S          -2.23884355024177    9.58664544290087    0.88103878989597
C          -3.66833944767426   11.68847799287976   -0.18281762714786
C          -4.06324881805299   12.16949954670526    1.03087783838128
C          -4.87972636438539   13.32279598090724    0.94904826304394
C          -5.47227864335925   14.04539662614344    2.00415120014902
C          -5.24484729426702   13.72785336627154    3.39861495823311
C          -6.13874700107819   13.78804619471848    4.43118375355614
C          -5.57295969532386   13.46899108559195    5.68113392589832
C          -4.24531623346523   13.17859160300448    5.61823890870759
S          -3.66528440967456   13.28175592906281    3.98862926911453
C          -3.32015619200220   12.81801411960102    6.72410525672245
C          -6.28387124212377   15.11511961937797    1.63855506597588
C          -6.51662243745863   15.49573713244919    0.29465497283218
C          -5.93646355930544   14.76230247421913   -0.76059933130054
C          -5.11623394927159   13.70204816798701   -0.39627605919138
S          -4.29838270772782   12.63969467103282   -1.50988499762684
C          -6.20767102210050   15.09745722233643   -2.14356236412779
C          -7.40445023212856   15.44069489743689   -2.70727527389443
C          -7.31743204824194   15.69752221043569   -4.09012320695631
C          -6.05902657215481   15.55781650180383   -4.58803793229322
S          -4.94514871604143   15.08988831612564   -3.34411193122334
C          -5.58786653337269   15.75615314945995   -5.98369452945293
C          -7.30830116178370   16.66568381166828    0.20562474370784
C          -7.69521135411492   17.15990528124883    1.41863660196397
S          -7.08642710512842   16.19591904223114    2.74501557589131
C          -8.51739107697897   18.29790311651266    1.67299276354448
C          -9.12348306586093   19.10881702042730    0.75474520691302
C          -9.90705886538346   20.13384410562023    1.33267209650786
C         -10.65514065824892   21.12573712612617    0.66530079178476
C         -10.59017975215118   21.26942816179406   -0.77455302707952
C          -9.48578826605348   21.20402563836649   -1.57740306818959
C          -9.77637045187190   21.39768756242667   -2.94252019703212
C         -11.09825817883083   21.60415883421579   -3.19062915074356
S         -12.01976201500722   21.57450737253699   -1.72281700282844
C         -11.77147696684788   21.84119947183908   -4.49396090821697
C         -11.44140989065307   21.94679447512007    1.46429229133420
C         -11.45572250950993   21.86800998790014    2.88356334170197
C         -10.63103060613077   20.93354791440602    3.55557096038014
C          -9.90858250243846   20.06367963214692    2.74932169497345
S          -8.88368493147819   18.77166115746979    3.31454664704043
C         -10.55578228923059   20.91299767818009    4.99799022469284
C         -10.54014769856925   21.97986231597486    5.85575968751623
C         -10.44720380856164   21.60575748080566    7.20873536092538
C         -10.39900157655756   20.25804668320085    7.39718949129571
S         -10.45036430107255   19.41523447523554    5.88428414693593
C         -10.31096441096961   19.50465611667162    8.67482621158146
C         -12.37564195911707   22.76377054718034    3.45802004942057
C         -13.03604521885853   23.54657977161265    2.54105112030276
S         -12.50971332459176   23.19082492137904    0.89533451255420
C         -14.02941639740557   24.54106525135459    2.67163298604559
C         -14.73882133951093   24.98127979128898    3.75468547904602
C         -15.77280450808886   26.00289690373372    3.66244495479956
C         -15.97826696812199   26.88150871579863    2.63053904134276
C         -16.99656310997613   27.85799442357355    2.62146604072566
N         -17.80212938304300   28.67275264784332    2.54702072391369
C         -15.19850802211885   26.99021964035552    1.45930991391353
N         -14.61204398860685   27.17204311010072    0.48848654555807
C         -16.52899381410148   25.98872151447840    4.90893536669819
C         -15.89660971652309   25.08291685916991    5.80466559645259
C         -14.72941131603263   24.46965331783444    5.14678096825716
O         -13.94181241040481   23.71198864137840    5.67707541464476
C         -16.37061734999683   24.86181803722112    7.06522841561814
C         -17.53266727738463   25.54232606079435    7.49215558588501
C         -18.18009585078423   26.44190870259331    6.59722604910809
C         -17.65898656202983   26.65658955674211    5.30041232193773
C         -19.34394828569873   27.10918263279231    7.03025427194591
C         -19.84467687773161   26.90045603517326    8.28640003312814
C         -19.20526065969776   26.01556465258458    9.16731321848099
C         -18.07382498961747   25.35120272553743    8.77857779545132
H           3.39999714128591    3.92905357113091   -7.41481838405728
H           5.80111794223720    0.72488262653745   -4.44436710733524
H           7.01420700208571   -0.13426475204461   -6.34870241022105
H           7.51046062132561   -0.10961241121352   -8.76071140860995
H           6.34458541820222    1.46531578581210  -10.25310015486300
H           4.66949616959085    3.02691541753063   -9.34442837766743
H           2.53848376709072    3.75509648323162   -1.19556999169601
H           1.19808509160337    5.22271585009212    0.07161901270519
H          -0.72645065201834    4.82744502018843    1.28882144917425
H          -0.45384229856026    4.62432036470011    3.85606251394902
H          -0.09950959972609    6.10339876257824    5.96210373776277
H          -0.98808160883770    7.62478100118368    5.78607181655097
H           0.76219609165143    7.60697099088383    5.59685421717252
H          -1.23197329217823    6.81632454881779   -5.07648061736111
H          -1.27190065625787    8.13523307845697   -7.29860309220110
H          -0.14480305709715   11.54790899016276   -7.20617470870718
H          -1.88311922909643   11.75037122987455   -7.01409169604150
H          -1.25507717225575   10.58182622185890   -8.18922759925931
H          -2.67800230378753   10.59990072197300   -2.57177461682035
H          -3.77645121333030   11.69540591889527    1.95172216911307
H          -7.18052257192203   14.01711442205553    4.29820679281823
H          -6.13590518063695   13.45685928369628    6.59755363651731
H          -3.88080519127241   12.66959663414544    7.64399465186694
H          -2.58810434849211   13.60990274880182    6.88573279410025
H          -2.77509234556870   11.90486845591223    6.48856499633453
H          -8.32837769392869   15.46371008883493   -2.15711304415977
H          -8.16393476272872   15.97277280478029   -4.69439250266026
H          -6.43242926553330   15.96945750849272   -6.63465783699351
H          -5.07769340295075   14.86484837380866   -6.34683571123378
H          -4.88448335554026   16.58721007686915   -6.03806924886557
H          -7.55708181495361   17.13812399019546   -0.72588440686254
H          -9.04164976259897   18.95936967273838   -0.30546489710448
H          -8.48926260764444   21.06712973094133   -1.19641764243689
H          -9.02616830701320   21.38771142907375   -3.71354781191162
H         -11.04379541442750   21.80474579371793   -5.30115133587435
H         -12.25696888899807   22.81677623888993   -4.50171503381931
H         -12.53780920152952   21.08790418907348   -4.67482043873623
H         -10.55164528889084   23.00267624671739    5.52588948711157
H         -10.41939275503175   22.31542538776739    8.01631626790561
H         -10.27725964308163   20.19674032077776    9.51276883403484
H          -9.41594347270212   18.88332359665121    8.69353051950527
H         -11.17309149770027   18.84890327956325    8.79453118034198
H         -12.58043222254883   22.81639960909040    4.51074405469325
H         -14.28556622644563   24.99767956318686    1.72213620108959
H         -15.86812698486988   24.17104784754755    7.72612862403466
H         -18.17523413722840   27.34096833491987    4.64638726093753
H         -19.83192355485469   27.79064583994064    6.34887671769530
H         -20.73682454181581   27.41642055804588    8.60845869858945
H         -19.61402067159881   25.86259687794325   10.15503079971784
H         -17.57724279604717   24.66779649805275    9.45200969822008
