# ORCA input file
# SCF done       -216.462368592635          0.000601832447
! CAM-B3LYP def2-SVP def2/J RIJCOSX Grid4 TightSCF
%maxcore 5000
%tddft
    Mode sTDDFT
    Ethresh 5.0
    maxcore 5000
end

%pal
  nprocs 6
  end
* xyz 0 1
   C       -2.87903         2.09686         3.79489
   C       -4.09244         2.59747         3.39922
   C       -5.16878         2.82806         4.27904
   N       -6.06787         3.04887         4.95746
   C       -4.42266         2.84826         2.05216
   N       -4.73099         3.02279         0.95989
   C       -2.58340         1.54539         5.11185
   C       -1.47492         0.65627         4.98989
   C       -1.00123        -0.04758         6.05928
   C       -1.61739         0.11725         7.32048
   C       -2.71374         1.01842         7.45163
   C       -3.18847         1.72928         6.32541
   C       -3.31415         1.17791         8.71693
   C       -2.85835         0.47869         9.80122
   C       -1.78045        -0.40967         9.67096
   C       -1.17339        -0.58659         8.45722
   C       -0.98904         0.66885         3.59858
   O       -0.10501         0.00737         3.10618
   C       -1.78092         1.73829         2.92189
   C       -1.34179         2.24726         1.74069
   C       -1.64483         3.48551         1.12574
   C       -1.43379         3.79999        -0.20733
   C       -1.78878         5.11219        -0.50353
   C       -2.23678         5.82349         0.62768
   S       -2.23967         4.87287         2.03781
   C       -2.56140         7.14347         0.23369
   C       -2.33155         7.26798        -1.14753
   C       -1.83415         5.99644        -1.65501
   C       -1.48018         5.70691        -2.93929
   C       -1.57067         6.66374        -3.97265
   N       -1.63980         7.44394        -4.80979
   C       -0.98908         4.43897        -3.31800
   N       -0.57963         3.41475        -3.62958
   C       -2.62974         8.53824        -1.63475
   C       -3.08063         9.38245        -0.63396
   S       -3.14118         8.59098         0.93252
   C       -3.46007        10.74177        -0.76195
   C       -3.85872        11.60621         0.24218
   C       -4.13619        12.88105        -0.24851
   C       -3.95233        12.98397        -1.63869
   S       -3.43653        11.51605        -2.34041
   C       -4.23874        14.31379        -2.03558
   C       -4.60168        15.05401        -0.89668
   C       -4.55171        14.17782         0.26368
   C       -4.82153        14.50650         1.55906
   C       -5.20893        15.81021         1.93546
   N       -5.52268        16.87033         2.23873
   C       -4.72223        13.56600         2.60642
   N       -4.63625        12.80260         3.45732
   C       -4.87728        16.39016        -1.18339
   C       -4.72629        16.67106        -2.52964
   S       -4.24509        15.25723        -3.45793
   C       -4.87346        17.92372        -3.17583
   C       -4.69996        18.19851        -4.52145
   C       -4.86402        19.55318        -4.80100
   C       -5.16999        20.31519        -3.65936
   S       -5.26473        19.36049        -2.24434
   C       -5.26663        21.67651        -4.03589
   C       -5.01261        21.77631        -5.42086
   C       -4.78307        20.44339        -5.95038
   C       -4.55541        20.09274        -7.24780
   C       -4.54184        21.03395        -8.30034
   N       -4.54697        21.77676        -9.17305
   C       -4.34491        18.75028        -7.62903
   N       -4.17346        17.65858        -7.93442
   C       -5.00386        23.08745        -5.88063
   C       -5.25037        23.99775        -4.86372
   S       -5.54884        23.19292        -3.31960
   C       -5.30991        25.40858        -4.89469
   C       -4.66251        26.23697        -5.76644
   C       -4.81827        27.67856        -5.82214
   C       -5.88514        28.39225        -5.34127
   C       -6.00744        29.79304        -5.44784
   N       -6.15671        30.93012        -5.49816
   C       -7.01343        27.82028        -4.71716
   N       -7.96619        27.41414        -4.22113
   C       -3.68766        28.22201        -6.56248
   C       -2.89501        27.13674        -7.03325
   C       -3.48916        25.86111        -6.60089
   O       -3.05103        24.75192        -6.81944
   C       -1.75864        27.33534        -7.76301
   C       -1.35362        28.65602        -8.05885
   C       -2.13711        29.74826        -7.58548
   C       -3.31104        29.51065        -6.83371
   C       -1.71733        31.06145        -7.87942
   C       -0.57986        31.28685        -8.60619
   C        0.18972        30.21074        -9.07272
   C       -0.18961        28.92313        -8.80581
   H       -0.16714        -0.72390         5.94536
   H       -4.01433         2.41217         6.45164
   H       -4.14610         1.86023         8.81131
   H       -3.32679         0.60575        10.76563
   H       -1.43345        -0.95310        10.53699
   H       -0.34311        -1.26932         8.35101
   H       -0.59112         1.64986         1.23087
   H       -1.06824         3.08135        -0.91847
   H       -2.52868         8.85093        -2.65859
   H       -3.93194        11.30731         1.27248
   H       -5.16741        17.13338        -0.46249
   H       -4.45644        17.44026        -5.24392
   H       -4.84147        23.37785        -6.90093
   H       -5.88952        25.86056        -4.09797
   H       -1.17663        26.49450        -8.11005
   H       -3.87902        30.35753        -6.48218
   H       -2.31370        31.88700        -7.51963
   H       -0.26679        32.29652        -8.82578
   H        1.08464        30.40686        -9.64408
   H        0.39851        28.09009        -9.16213
*
