108
 SCF done       -216.462368592635          0.000601832447
C          -2.87903202419543    2.09685647156105    3.79488537987716
C          -4.09243953893958    2.59747478056535    3.39922441079842
C          -5.16878352905539    2.82805622906249    4.27903526941517
N          -6.06786952049216    3.04887476622993    4.95745921364721
C          -4.42266000958631    2.84826027014339    2.05216266170042
N          -4.73098640877054    3.02278883764536    0.95988725439647
C          -2.58340023397300    1.54539406741813    5.11184989705920
C          -1.47492444725633    0.65626866958635    4.98989419475934
C          -1.00123286145395   -0.04758233912208    6.05927968445816
C          -1.61738762315193    0.11725459747530    7.32047517733242
C          -2.71374050008232    1.01842170095794    7.45162638849665
C          -3.18847161040057    1.72928487944275    6.32540573137346
C          -3.31415318931615    1.17791000244144    8.71692685934413
C          -2.85835399157566    0.47868939654728    9.80121827079339
C          -1.78044980469572   -0.40967151882161    9.67096484640789
C          -1.17339081417321   -0.58658769107477    8.45722300825446
C          -0.98903664101730    0.66885373739613    3.59857902914127
O          -0.10501275096905    0.00737224251611    3.10618447593159
C          -1.78091575246410    1.73829307563909    2.92188715888076
C          -1.34178893096910    2.24726203469607    1.74069432249433
C          -1.64483081902564    3.48551256106521    1.12573956087760
C          -1.43379463962902    3.79998530777655   -0.20733156165392
C          -1.78878118473165    5.11219015445104   -0.50353120859501
C          -2.23677852967372    5.82349319259854    0.62767996887512
S          -2.23967100635229    4.87286630757974    2.03780696559922
C          -2.56140386548663    7.14346835526933    0.23369458434103
C          -2.33155132493112    7.26798262446433   -1.14752524898256
C          -1.83415277942492    5.99643953152135   -1.65501369209684
C          -1.48018376536959    5.70691490701032   -2.93929035855321
C          -1.57066557957535    6.66374250860517   -3.97264799576623
N          -1.63979533153381    7.44393834271414   -4.80978762332299
C          -0.98908152243039    4.43897413176361   -3.31799729304581
N          -0.57962901771361    3.41474729332116   -3.62958411181194
C          -2.62973762867433    8.53823939218127   -1.63474614674692
C          -3.08062628941828    9.38245122329209   -0.63395597964555
S          -3.14117894329522    8.59097769347672    0.93252460449351
C          -3.46007147865016   10.74176561328913   -0.76194874210984
C          -3.85871938833897   11.60620884736144    0.24217764299712
C          -4.13618777006725   12.88104600573138   -0.24851069311172
C          -3.95232530641914   12.98396876885763   -1.63868842785364
S          -3.43652717123346   11.51605026517501   -2.34041450500368
C          -4.23874039311847   14.31378888204371   -2.03558144997174
C          -4.60167562993572   15.05401308693434   -0.89668012954831
C          -4.55171354565632   14.17782438485112    0.26368275940859
C          -4.82153449999047   14.50650486487151    1.55906362742090
C          -5.20892758028020   15.81021126822938    1.93545989701899
N          -5.52267609609187   16.87033334820950    2.23872878340801
C          -4.72222645944007   13.56600060162285    2.60642418995600
N          -4.63625241583712   12.80260067266796    3.45731541377792
C          -4.87728260685584   16.39015540065098   -1.18339089077143
C          -4.72629097696668   16.67105502658225   -2.52963771452692
S          -4.24508978152253   15.25722810798645   -3.45793211378164
C          -4.87346332357067   17.92372234699318   -3.17583129904859
C          -4.69995939749191   18.19850530660038   -4.52144699066779
C          -4.86402436516014   19.55318495720924   -4.80099587795134
C          -5.16999067015077   20.31519437898206   -3.65935806360049
S          -5.26473460060278   19.36049384494970   -2.24434295514499
C          -5.26662990788888   21.67650812985769   -4.03588561079051
C          -5.01260542579639   21.77631446149607   -5.42085956136853
C          -4.78307263310007   20.44338889169116   -5.95038147200290
C          -4.55541320556964   20.09274176116840   -7.24780278672115
C          -4.54183786889096   21.03395226745645   -8.30033701330703
N          -4.54696755145285   21.77676265830296   -9.17305493896427
C          -4.34490850385574   18.75028491902455   -7.62903135653753
N          -4.17345701234274   17.65858200750091   -7.93441634361896
C          -5.00386459741505   23.08744731581122   -5.88062670623622
C          -5.25036533369700   23.99774979891280   -4.86371522904884
S          -5.54884213980627   23.19292253552294   -3.31959506446489
C          -5.30990770837828   25.40857884184600   -4.89469343505878
C          -4.66251084818968   26.23696761982062   -5.76644309365741
C          -4.81826829695459   27.67855846998373   -5.82214334741547
C          -5.88513695391257   28.39224571474053   -5.34126713443086
C          -6.00743698484035   29.79303532258204   -5.44783543200698
N          -6.15671465960586   30.93012059345992   -5.49815939528898
C          -7.01342881221439   27.82028326257922   -4.71716169938207
N          -7.96619011345661   27.41414062626363   -4.22112836099289
C          -3.68765954130360   28.22201058006058   -6.56247905412820
C          -2.89500581801316   27.13673994039913   -7.03325457409658
C          -3.48915717484091   25.86110993145221   -6.60089226937620
O          -3.05102667913784   24.75191919857309   -6.81943759747361
C          -1.75863689013614   27.33533752525939   -7.76300985749483
C          -1.35362224240478   28.65602306443208   -8.05884874911006
C          -2.13710616719720   29.74825681468301   -7.58547596517121
C          -3.31103963721883   29.51065392032274   -6.83371163014967
C          -1.71732628837922   31.06144523346542   -7.87942039140716
C          -0.57986330823174   31.28684855698714   -8.60618986053040
C           0.18971754804623   30.21074056096440   -9.07271832473140
C          -0.18961240318187   28.92312903112610   -8.80580699487519
H          -0.16714091849661   -0.72389592825700    5.94536157853415
H          -4.01433113402247    2.41217084649517    6.45164369369362
H          -4.14610407385214    1.86022561452691    8.81130673504167
H          -3.32679333363104    0.60574830367150   10.76563056095797
H          -1.43345499133993   -0.95310303894295   10.53699039367621
H          -0.34311497312364   -1.26932334648287    8.35100589485411
H          -0.59111963915175    1.64985565585043    1.23087230272354
H          -1.06824368807787    3.08135270661554   -0.91846717100552
H          -2.52868427902571    8.85092887221558   -2.65858903282127
H          -3.93194215629976   11.30730878270572    1.27247821507182
H          -5.16740530493720   17.13337975203528   -0.46248661935714
H          -4.45644051268020   17.44025583219429   -5.24392305074904
H          -4.84146744624932   23.37784989287039   -6.90092821623846
H          -5.88952431920160   25.86056439839739   -4.09796738422523
H          -1.17663338141642   26.49450381290174   -8.11005234572755
H          -3.87901788525245   30.35752756444234   -6.48218398075678
H          -2.31369516475400   31.88700280771160   -7.51963168030472
H          -0.26679107422674   32.29652148001811   -8.82578336706747
H           1.08463562215847   30.40685645317280   -9.64408481411156
H           0.39851167994468   28.09008626514639   -9.16212862218037
