162
 SCF done       -309.780811511926          0.000469857947
C           5.11635832842551    3.09080875742467   -0.38462975045163
C           5.08648171329375    2.17557632331738    0.63465133960078
C           6.04976897356478    1.15845271197092    0.80701796871268
N           6.79905666540281    0.31263616140136    1.01000751294104
C           4.09232686391176    2.06600075060966    1.63079620726236
N           3.32394997223719    1.88162615016846    2.46439497076006
C           6.09671073473607    3.10806015708080   -1.46289707017954
C           5.69456095991974    4.08146674736438   -2.41909400743043
C           6.41123757332223    4.31902585580130   -3.55646598816993
C           7.59418944147342    3.58344393776659   -3.79000450414996
C           8.00995888990045    2.61290869039618   -2.83327238483721
C           7.24284143827776    2.38579368225964   -1.66770123891577
C           9.19475969211836    1.88756167285575   -3.07347841258802
C           9.93390856317546    2.10833495670231   -4.20357834751380
C           9.52333445409732    3.06408760790255   -5.14495841604788
C           8.37821353716248    3.78558948767986   -4.94278444147062
C           4.45391032559112    4.73489696811060   -1.97097214990424
O           3.83419853685396    5.57232827564279   -2.59435697285755
C           4.15653707750573    4.15994813541098   -0.63371712697604
C           3.25023321465523    4.57994794873911    0.29733611556927
C           2.25847116445412    5.58757519658651    0.25418472106554
C           1.79581455399854    6.39377985167728   -0.75559919667219
C           0.76866845437226    7.27180156271178   -0.35846875501741
C           0.08042231962522    8.20780243222912   -1.16444431150180
C           0.32805549340148    8.28886348409481   -2.58745969799563
C           0.52554487604110    7.26379616431003   -3.46961988332507
C           0.75055948291619    7.71603989368678   -4.78647675334898
C           0.73503697050019    9.07416538977494   -4.92827423703584
S           0.42062209848943    9.82697668100985   -3.40308124682526
C           0.94880843609823    9.88399819720128   -6.15368712856544
Cl          1.01986424979346    6.63254666946024   -6.09539459285722
C          -0.83367433262961    9.02584130736657   -0.51430982470266
C          -1.12789085873878    8.92150845738745    0.87037751314374
C          -0.48695280138827    7.94772867611620    1.66387065744012
C           0.46388056474800    7.15698097127922    1.02481319209667
S           1.40948782361798    5.90544681278156    1.76746881397247
C          -0.79967061524016    7.75491768616255    3.06536018511764
C           0.05534918308856    7.43737234705292    4.08198170284422
C          -0.60318564195096    7.26379866185984    5.31823395148100
C          -1.95636985739169    7.43151228494798    5.26710628989618
S          -2.44127019950002    7.82431670744087    3.65322551661049
C          -2.95129387063175    7.30592832356909    6.36185859343758
Cl          0.24476905919568    6.87572905086695    6.76520690802333
C          -2.07135768536207    9.89156848506733    1.27916660005856
C          -2.51874643246115   10.68557931693555    0.26098934569376
S          -1.78524260088326   10.27398637079399   -1.26964649578792
C          -3.44935907710540   11.76349717157408    0.35321040227028
C          -4.01435950440832   12.27467627322803    1.48641651158061
C          -4.87580163194509   13.37165906280209    1.24802698162832
C          -5.62386223964627   14.10822547251277    2.18898770524755
C          -5.55262591004720   13.86674002080658    3.61560930605934
C          -6.56814602777260   13.94506949057704    4.52589696774201
C          -6.13576648837021   13.71935973205266    5.85011769085693
C          -4.79946619220430   13.47560192303139    5.97633565966884
S          -4.04451480726910   13.51610707310364    4.41915556087942
C          -4.01187057024801   13.21599616356493    7.20771326664065
Cl         -7.22006625679107   13.75400786365451    7.18716239793135
C          -6.43988336698196   15.11295731717027    1.67812793587423
C          -6.54878631982741   15.40625976499303    0.29581760411633
C          -5.80694866039416   14.66484110160060   -0.64558810736045
C          -4.97414976181647   13.67385903520259   -0.13352767083562
S          -3.97157007962407   12.61255450950171   -1.08199684099282
C          -5.90651377497635   14.89218783305054   -2.07243241437450
C          -4.91324345762665   14.81610977250992   -3.00716862623718
C          -5.38163267274559   15.03061917476230   -4.32109830641710
C          -6.72363795884157   15.25925922585195   -4.41456913276570
S          -7.43865560881707   15.22018876183290   -2.83960721801153
C          -7.54582403776305   15.51092545578840   -5.62450401497704
Cl         -4.33078743340065   15.00124722081432   -5.68450545037339
C          -7.40215924079569   16.51124873261075    0.05961876110757
C          -7.93248055922043   17.04802014040099    1.19516947305352
S          -7.40482212697759   16.20432328489234    2.63430302829067
C          -8.83159099997871   18.14752090553227    1.30031750386344
C          -9.29529117407459   18.73497220495825    2.44087323802088
C         -10.19779522288002   19.79934650206637    2.20781061734394
C         -10.81474121909507   20.63776061596523    3.15785725268331
C         -10.64863815309349   20.45751645122049    4.58574670108575
C         -10.54329781068367   21.42445710678141    5.54475492164613
C         -10.44864797149545   20.89341454175055    6.84917765645492
C         -10.49336672189047   19.53088023330008    6.91015558472651
S         -10.64678068558243   18.87356083852412    5.31698561196517
C         -10.43207229954949   18.64869088722837    8.10226903678342
Cl        -10.28935111008332   21.89677738324070    8.23890961571757
C         -11.61667251539309   21.65845337747505    2.65417444817590
C         -11.83804089044315   21.86599479170043    1.26567702637375
C         -11.20947699006753   21.03034852991446    0.31401631640180
C         -10.40943034289023   20.01396498983733    0.82120298261316
S          -9.49273151516039   18.88480876238245   -0.14079336476720
C         -11.37003698563801   21.21477082657569   -1.11200647945644
C         -11.45493870750000   20.24734060317716   -2.07500077565459
C         -11.54965671771968   20.78280792342986   -3.37542664246917
C         -11.52542308324984   22.14728851513440   -3.42920013642246
S         -11.39285235312321   22.79994224502008   -1.83506328489865
C         -11.60335206756666   23.03412580433142   -4.61688653491128
Cl        -11.67883002282911   19.78307699567777   -4.77132517342377
C         -12.75398781673404   22.90789032215211    1.02158641542855
C         -13.22543233343852   23.51103197699372    2.16074855265366
S         -12.52026167701337   22.79209674496054    3.60726764485777
C         -14.11447182460133   24.59108288544461    2.36852717764501
C         -14.91462578012561   25.28271168520984    1.50509267600940
C         -15.76424339027427   26.39013893493613    1.92574188586669
C         -15.65823091573557   27.11350443386472    3.08429474874516
C         -16.50656206582889   28.19067829703160    3.41863024212206
N         -17.16422415808246   29.07000963939223    3.75380823005949
C         -14.67605854721910   26.94139258446411    4.08362860068166
N         -13.90260642809556   26.89292338855261    4.93132835511165
C         -16.70874361022871   26.66426892928307    0.85071924977699
C         -16.37227721104129   25.84237678672750   -0.26060639177359
C         -15.21335994893152   24.99850123102494    0.07783180502095
O         -14.65292004683986   24.23474876506103   -0.68118635628962
C         -17.07539510675818   25.88499811652005   -1.43002760926884
C         -18.17560131641928   26.76405189038478   -1.54010509776742
C         -18.52565541542310   27.58332814604758   -0.42820906633922
C         -17.77480147315219   27.52060202776359    0.76794601831253
C         -19.62905816695214   28.45281153319233   -0.54640947969926
C         -20.35214504817113   28.51274652541920   -1.70644692422262
C         -20.00620067676109   27.70606135548906   -2.80087373179474
C         -18.94110500311067   26.85067680406407   -2.71954224347010
H           6.07961353122711    5.06118869232199   -4.26750343381193
H           7.58826244545176    1.64726875389858   -0.96217883552722
H           9.50611033435295    1.15190273100524   -2.34644414269889
H          10.83967826272030    1.54732525105590   -4.37857884633866
H          10.11898334459072    3.22559801623989   -6.03098938823206
H           8.05665533244754    4.52268230233334   -5.66405077719503
H           3.29408969800944    4.08355388685630    1.26017335987530
H           2.21133009473795    6.36977237951524   -1.74516628440434
H           0.47358242352543    6.22317112497849   -3.20934602232632
H           0.99526513090628    9.23065838596692   -7.02142302519993
H           1.88190359909014   10.44348956643810   -6.08513882506585
H           0.13845156599617   10.59906389398562   -6.28629914280515
H           1.12122510221625    7.36305205511523    3.97516210381757
H          -2.44405740652783    7.33914859605145    7.32315206923170
H          -3.48633386509125    6.35859433322465    6.28579835964568
H          -3.68315005137597    8.10987973513603    6.31129957594052
H          -2.40080065298054   10.00939317955060    2.29350224809096
H          -3.82142298923329   11.87226414400406    2.46211539283438
H          -7.59651309741110   14.11979656882151    4.27085989830146
H          -4.68497671056175   13.01269574062061    8.03712835391462
H          -3.40006325708193   14.08246464126980    7.46087971679413
H          -3.34665905229868   12.36585216953104    7.06751888005748
H          -3.87700149174678   14.65184869518712   -2.77801448639550
H          -6.89801941488323   15.62667196596538   -6.48990246625316
H          -8.14370099153299   16.41282245671812   -5.50185066672074
H          -8.22726132551518   14.67933273958138   -5.80513723424699
H          -7.61021110894345   16.91756079524130   -0.91294097023264
H          -8.97851435707329   18.41372676123065    3.41585533161166
H         -10.49569874106709   22.47772062481933    5.34010970911227
H         -10.18373439361306   19.23899284118700    8.98078648452952
H          -9.68043878966567   17.87235145131493    7.96775914239503
H         -11.39261476498426   18.16042517485390    8.26849374275242
H         -11.49223017985256   19.19310033398550   -1.87349095553141
H         -11.75588225398952   22.43697922780382   -5.51252536947679
H         -10.68435651601139   23.60934251590209   -4.72848478944125
H         -12.42814520400713   23.73769940293754   -4.51188555070651
H         -13.08356722316144   23.20558656312384    0.04430954634741
H         -14.17123137457193   24.88817069023467    3.40983091633034
H         -16.79697575522633   25.25263334076965   -2.26009624492230
H         -18.06938105920330   28.14923420642488    1.59296901026888
H         -19.89055749244995   29.07276545003311    0.29854918146025
H         -21.19514781455782   29.18248696462574   -1.78730410626950
H         -20.58819822674477   27.76566433461187   -3.70841943652857
H         -18.67038480760962   26.22673573779207   -3.55884948826987
