# ORCA input file
# SCF done       -309.780811511926          0.000469857947
! CAM-B3LYP def2-SVP def2/J RIJCOSX Grid4 TightSCF
%maxcore 5000
%tddft
    Mode sTDDFT
    Ethresh 5.0
    maxcore 5000
end

%pal
  nprocs 6
  end
* xyz 0 1
   C        5.11636         3.09081        -0.38463
   C        5.08648         2.17558         0.63465
   C        6.04977         1.15845         0.80702
   N        6.79906         0.31264         1.01001
   C        4.09233         2.06600         1.63080
   N        3.32395         1.88163         2.46439
   C        6.09671         3.10806        -1.46290
   C        5.69456         4.08147        -2.41909
   C        6.41124         4.31903        -3.55647
   C        7.59419         3.58344        -3.79000
   C        8.00996         2.61291        -2.83327
   C        7.24284         2.38579        -1.66770
   C        9.19476         1.88756        -3.07348
   C        9.93391         2.10833        -4.20358
   C        9.52333         3.06409        -5.14496
   C        8.37821         3.78559        -4.94278
   C        4.45391         4.73490        -1.97097
   O        3.83420         5.57233        -2.59436
   C        4.15654         4.15995        -0.63372
   C        3.25023         4.57995         0.29734
   C        2.25847         5.58758         0.25418
   C        1.79581         6.39378        -0.75560
   C        0.76867         7.27180        -0.35847
   C        0.08042         8.20780        -1.16444
   C        0.32806         8.28886        -2.58746
   C        0.52554         7.26380        -3.46962
   C        0.75056         7.71604        -4.78648
   C        0.73504         9.07417        -4.92827
   S        0.42062         9.82698        -3.40308
   C        0.94881         9.88400        -6.15369
  Cl        1.01986         6.63255        -6.09539
   C       -0.83367         9.02584        -0.51431
   C       -1.12789         8.92151         0.87038
   C       -0.48695         7.94773         1.66387
   C        0.46388         7.15698         1.02481
   S        1.40949         5.90545         1.76747
   C       -0.79967         7.75492         3.06536
   C        0.05535         7.43737         4.08198
   C       -0.60319         7.26380         5.31823
   C       -1.95637         7.43151         5.26711
   S       -2.44127         7.82432         3.65323
   C       -2.95129         7.30593         6.36186
  Cl        0.24477         6.87573         6.76521
   C       -2.07136         9.89157         1.27917
   C       -2.51875        10.68558         0.26099
   S       -1.78524        10.27399        -1.26965
   C       -3.44936        11.76350         0.35321
   C       -4.01436        12.27468         1.48642
   C       -4.87580        13.37166         1.24803
   C       -5.62386        14.10823         2.18899
   C       -5.55263        13.86674         3.61561
   C       -6.56815        13.94507         4.52590
   C       -6.13577        13.71936         5.85012
   C       -4.79947        13.47560         5.97634
   S       -4.04451        13.51611         4.41916
   C       -4.01187        13.21600         7.20771
  Cl       -7.22007        13.75401         7.18716
   C       -6.43988        15.11296         1.67813
   C       -6.54879        15.40626         0.29582
   C       -5.80695        14.66484        -0.64559
   C       -4.97415        13.67386        -0.13353
   S       -3.97157        12.61255        -1.08200
   C       -5.90651        14.89219        -2.07243
   C       -4.91324        14.81611        -3.00717
   C       -5.38163        15.03062        -4.32110
   C       -6.72364        15.25926        -4.41457
   S       -7.43866        15.22019        -2.83961
   C       -7.54582        15.51093        -5.62450
  Cl       -4.33079        15.00125        -5.68451
   C       -7.40216        16.51125         0.05962
   C       -7.93248        17.04802         1.19517
   S       -7.40482        16.20432         2.63430
   C       -8.83159        18.14752         1.30032
   C       -9.29529        18.73497         2.44087
   C      -10.19780        19.79935         2.20781
   C      -10.81474        20.63776         3.15786
   C      -10.64864        20.45752         4.58575
   C      -10.54330        21.42446         5.54475
   C      -10.44865        20.89341         6.84918
   C      -10.49337        19.53088         6.91016
   S      -10.64678        18.87356         5.31699
   C      -10.43207        18.64869         8.10227
  Cl      -10.28935        21.89678         8.23891
   C      -11.61667        21.65845         2.65417
   C      -11.83804        21.86599         1.26568
   C      -11.20948        21.03035         0.31402
   C      -10.40943        20.01396         0.82120
   S       -9.49273        18.88481        -0.14079
   C      -11.37004        21.21477        -1.11201
   C      -11.45494        20.24734        -2.07500
   C      -11.54966        20.78281        -3.37543
   C      -11.52542        22.14729        -3.42920
   S      -11.39285        22.79994        -1.83506
   C      -11.60335        23.03413        -4.61689
  Cl      -11.67883        19.78308        -4.77133
   C      -12.75399        22.90789         1.02159
   C      -13.22543        23.51103         2.16075
   S      -12.52026        22.79210         3.60727
   C      -14.11447        24.59108         2.36853
   C      -14.91463        25.28271         1.50509
   C      -15.76424        26.39014         1.92574
   C      -15.65823        27.11350         3.08429
   C      -16.50656        28.19068         3.41863
   N      -17.16422        29.07001         3.75381
   C      -14.67606        26.94139         4.08363
   N      -13.90261        26.89292         4.93133
   C      -16.70874        26.66427         0.85072
   C      -16.37228        25.84238        -0.26061
   C      -15.21336        24.99850         0.07783
   O      -14.65292        24.23475        -0.68119
   C      -17.07540        25.88500        -1.43003
   C      -18.17560        26.76405        -1.54011
   C      -18.52566        27.58333        -0.42821
   C      -17.77480        27.52060         0.76795
   C      -19.62906        28.45281        -0.54641
   C      -20.35215        28.51275        -1.70645
   C      -20.00620        27.70606        -2.80087
   C      -18.94111        26.85068        -2.71954
   H        6.07961         5.06119        -4.26750
   H        7.58826         1.64727        -0.96218
   H        9.50611         1.15190        -2.34644
   H       10.83968         1.54733        -4.37858
   H       10.11898         3.22560        -6.03099
   H        8.05666         4.52268        -5.66405
   H        3.29409         4.08355         1.26017
   H        2.21133         6.36977        -1.74517
   H        0.47358         6.22317        -3.20935
   H        0.99527         9.23066        -7.02142
   H        1.88190        10.44349        -6.08514
   H        0.13845        10.59906        -6.28630
   H        1.12123         7.36305         3.97516
   H       -2.44406         7.33915         7.32315
   H       -3.48633         6.35859         6.28580
   H       -3.68315         8.10988         6.31130
   H       -2.40080        10.00939         2.29350
   H       -3.82142        11.87226         2.46212
   H       -7.59651        14.11980         4.27086
   H       -4.68498        13.01270         8.03713
   H       -3.40006        14.08246         7.46088
   H       -3.34666        12.36585         7.06752
   H       -3.87700        14.65185        -2.77801
   H       -6.89802        15.62667        -6.48990
   H       -8.14370        16.41282        -5.50185
   H       -8.22726        14.67933        -5.80514
   H       -7.61021        16.91756        -0.91294
   H       -8.97851        18.41373         3.41586
   H      -10.49570        22.47772         5.34011
   H      -10.18373        19.23899         8.98079
   H       -9.68044        17.87235         7.96776
   H      -11.39261        18.16043         8.26849
   H      -11.49223        19.19310        -1.87349
   H      -11.75588        22.43698        -5.51253
   H      -10.68436        23.60934        -4.72848
   H      -12.42815        23.73770        -4.51189
   H      -13.08357        23.20559         0.04431
   H      -14.17123        24.88817         3.40983
   H      -16.79698        25.25263        -2.26010
   H      -18.06938        28.14923         1.59297
   H      -19.89056        29.07277         0.29855
   H      -21.19515        29.18249        -1.78730
   H      -20.58820        27.76566        -3.70842
   H      -18.67038        26.22674        -3.55885
*
