96
 SCF done       -199.493909662588          0.000863721383
C          -1.54180491987421   -3.18552459072462    5.55424538674889
C          -2.64135668659942   -3.38816927593453    6.32750070200820
S          -2.36994849588428   -4.66152417902705    7.46259795012182
C          -0.74258115352521   -4.93940898628258    6.89621101312516
C           0.12961571788458   -5.97885284757379    7.48547739878256
C          -0.46495527487640   -4.07267567318047    5.88334250953471
C           0.67188372529751   -3.79435841862203    5.01359401735101
O           1.75468268572397   -4.35847436683810    5.00555685287725
C           0.24564166738394   -2.68262418041587    4.14261294267264
C          -1.12500539998216   -2.31830060715136    4.47042716700391
C          -1.92086847900311   -1.36232902688789    3.89561422794612
C          -3.24152312204045   -1.15092958645232    4.34429880576796
N          -4.31728767692670   -0.96829169441445    4.69911985024218
C          -1.56315676529421   -0.50893712842019    2.83430390849372
N          -1.33662310747742    0.21375339561937    1.97101894772168
C           1.02083412535713   -2.07349762025704    3.19181583663470
C           2.33894014130199   -2.33831931872922    2.78377992764618
C           2.96908115332681   -1.57859158923460    1.79125501119748
C           4.25575581516842   -2.01041053653188    1.53005179541760
C           4.61809745195884   -3.12138262650577    2.32831297999977
S           3.38818546465592   -3.61612037649323    3.39695155971654
C           5.94062699460217   -3.49168853678662    1.98417575147206
C           6.41628426191748   -2.62496818514149    0.98378191757898
C           5.37113253861496   -1.66588863858263    0.66228181112805
C           5.43080659447370   -0.66696487054813   -0.26362519642992
C           4.34935234646049    0.20764003702402   -0.50329471952576
N           3.47551306254898    0.92173171246051   -0.70372223338560
C           6.58388337824466   -0.44539213227725   -1.04628830498199
N           7.51996210092956   -0.26880685643523   -1.68434120326905
C           7.71579173400237   -2.92284276145167    0.57840552946891
C           8.22972629701394   -4.01423650370362    1.25669843543411
S           7.09180349153147   -4.67694200861477    2.41973826075084
C           9.50472996575634   -4.60983110378890    1.08650292191582
C           9.99002924615608   -5.75464053341010    1.69302278080298
C          11.27983600774268   -6.06401886040888    1.26378322191622
C          11.78168824996781   -5.14052926832123    0.33014679051250
S          10.66688009807661   -3.89732285880136   -0.02380711605139
C          13.08251359600786   -5.54940122643919   -0.05618449973919
C          13.40038665097041   -6.73768740826158    0.62483814707958
C          12.28125354530183   -7.09656940018909    1.48238876055933
C          12.18867938851982   -8.17459991862580    2.31187967372337
C          11.04476674185719   -8.41537917709502    3.10239346093367
N          10.11483847757494   -8.60863282891212    3.74447603931517
C          13.22986033116958   -9.11982955673773    2.42999183198751
N          14.07461138593792   -9.88926480826780    2.52179745030934
C          14.66089049242147   -7.23219964411200    0.29311502766607
C          15.30584603570516   -6.42596057738351   -0.62769718785576
S          14.33767865524998   -5.03304161351100   -1.09087442910012
C          16.58618500263781   -6.62025394581258   -1.20366577017570
C          17.26202708456147   -5.76327975485265   -2.05578528630468
C          18.49578308840630   -6.28143756142683   -2.44224370407796
C          18.75724506201719   -7.54574060950082   -1.88589087647335
S          17.49086869339659   -8.08907776687412   -0.87518822646056
C          20.02006037040070   -7.98850995995225   -2.34622563524869
C          20.56160618805024   -7.00265048577154   -3.19620842335675
C          19.62481373066478   -5.89533364894567   -3.27741412117982
C          19.76733726058131   -4.73609032290098   -3.98056735357021
C          18.77687967312993   -3.73081539917531   -3.97151682621609
N          17.96951338266856   -2.91686942288415   -3.96326238148086
C          20.90861108629738   -4.46621693222745   -4.76595625519345
N          21.82944150471993   -4.24696288520047   -5.41238816345418
C          21.79874836705590   -7.36450980988569   -3.71808036162798
C          22.22827128382952   -8.59803973645643   -3.25172888929882
S          21.03791047149267   -9.34051179652203   -2.18294288786767
C          23.40835913837198   -9.26296001458601   -3.65897918413424
C          24.05203060651517  -10.32295212718639   -3.10129536667589
C          24.96367835008452  -11.14633940431222   -3.95912191352027
O          25.38790698886125  -10.84649377522611   -5.05159304024737
C          25.15056182020420  -12.38717794441109   -3.20538446360063
C          25.76487272699172  -13.58339237569080   -3.41631263924492
S          25.54850331546330  -14.60122297887318   -2.01383214863245
C          24.65128637427809  -13.39325782686428   -1.16633267558706
C          24.51519925324983  -12.27344308943924   -1.92327419705968
C          23.95580927379601  -10.94341415594842   -1.79299196829874
C          23.66585703192787  -10.33393123624464   -0.59955072871831
C          23.69366212435693  -11.04922992910254    0.61403904212313
N          23.69782374838992  -11.63222343137529    1.60223171146252
C          23.41440306821167   -8.95608788171166   -0.46208838692410
N          23.24695045735177   -7.82890496110435   -0.32002809769160
C          26.52148033541703  -14.03436150088857   -4.60488917293720
H          -3.58896635882688   -2.88808182867407    6.31900430403747
H          -0.31962587525837   -6.96543691712532    7.37444772230435
H           0.27607622095314   -5.79927369126723    8.55022545908434
H           1.09403191708735   -5.96542084111725    6.98265830875660
H           0.57061661482026   -1.24850431487146    2.65195054809700
H           2.47836521867686   -0.75527726300024    1.30267894696872
H           8.27050348991990   -2.38956063465533   -0.17268735434863
H           9.41731877390093   -6.32518904780799    2.40199066069484
H          15.10173167261820   -8.12816712212774    0.69203148994025
H          16.86172886318265   -4.81443868062689   -2.36513120314054
H          22.38857390174156   -6.76393321681789   -4.38692260379465
H          23.81708293701313   -8.92878331530256   -4.60868718307160
H          24.28267892521322  -13.60331412115621   -0.18223786257459
H          26.51621162510910  -13.24505724688532   -5.35323271891362
H          26.07580438696433  -14.93479756322498   -5.02666638200220
H          27.55190228809598  -14.26751476021967   -4.33784545457616
