# ORCA input file
# SCF done       -204.425955738223          0.000237717276
! CAM-B3LYP def2-SVP def2/J RIJCOSX Grid4 TightSCF
%maxcore 5000
%tddft
    Mode sTDDFT
    Ethresh 5.0
    maxcore 5000
end

%pal
  nprocs 6
  end
* xyz 0 1
   C       -0.22115        -1.95723         2.20814
   O        0.02358        -2.72812         1.30690
   C        0.68553        -0.90590         2.71786
   C        0.08062        -0.22993         3.79082
   C        0.76916         0.79261         4.42906
   C        2.04006         1.12111         3.98303
   C        2.61580         0.44194         2.91626
   C        1.94881        -0.58682         2.26494
  Br        4.35731         0.93174         2.34042
   C       -1.24642        -0.79653         4.01146
   C       -2.18094        -0.30865         4.88661
   C       -1.95539         0.78135         5.75453
   N       -1.83102         1.65518         6.48799
   C       -3.50073        -0.78962         5.02510
   N       -4.59232        -1.11078         5.17975
   C       -1.41829        -1.89963         3.08103
   C       -2.43194        -2.81691         3.14981
   C       -2.75802        -3.86311         2.26508
   C       -2.39938        -4.10741         0.94485
   C       -2.98542        -5.26254         0.44854
   C       -3.80351        -5.92288         1.39439
   S       -3.87546        -5.09432         2.87536
   C       -4.30076        -7.10902         0.80575
   C       -3.80657        -7.20184        -0.50817
   C       -2.98275        -6.03316        -0.78335
   C       -2.36211        -5.72525        -1.95699
   C       -2.43915        -6.57482        -3.08181
   N       -2.50303        -7.26954        -3.99154
   C       -1.62685        -4.53416        -2.14605
   N       -1.04619        -3.56390        -2.33150
   C       -4.22253        -8.35778        -1.16379
   C       -5.02758        -9.14697        -0.35941
   S       -5.28378        -8.44316         1.22843
   C       -5.59445       -10.40447        -0.68444
   C       -6.40027       -11.20006         0.11086
   C       -6.73947       -12.39425        -0.52263
   C       -6.18659       -12.50633        -1.81092
   S       -5.25888       -11.14154        -2.24540
   C       -6.55969       -13.76021        -2.35567
   C       -7.34954       -14.44206        -1.41295
   C       -7.49588       -13.60292        -0.23340
   C       -8.18988       -13.89056         0.90420
   C       -8.88488       -15.10785         1.06815
   N       -9.44603       -16.09890         1.19840
   C       -8.25401       -12.98931         1.98836
   N       -8.30227       -12.25503         2.86730
   C       -7.74319       -15.70625        -1.84836
   C       -7.25771       -15.99128        -3.11240
   S       -6.30716       -14.67011        -3.77738
   C       -7.42545       -17.18658        -3.85533
   C       -6.92489       -17.46844        -5.11515
   C       -7.25339       -18.75741        -5.52772
   C       -8.01248       -19.46250        -4.57578
   S       -8.32444       -18.53351        -3.17595
   C       -8.28083       -20.75937        -5.07821
   C       -7.68374       -20.87251        -6.35170
   C       -7.03458       -19.61648        -6.68110
   C       -6.38873       -19.30870        -7.84205
   C       -6.27989       -20.24719        -8.89035
   N       -6.19860       -21.02515        -9.72864
   C       -5.79840       -18.04596        -8.05927
   N       -5.31475       -17.01968        -8.22302
   C       -7.89431       -22.11067        -6.94041
   C       -8.65305       -22.95241        -6.13813
   S       -9.08089       -22.18537        -4.61125
   C       -9.03709       -24.28897        -6.37339
   C       -9.05116       -24.97818        -7.54924
   C       -9.04879       -26.46754        -7.50161
   O       -9.26535       -27.16128        -6.53722
   C       -8.66821       -26.89305        -8.86625
   C       -8.58955       -25.76537        -9.70422
   C       -8.97464       -24.58043        -8.93965
   C       -9.42782       -23.41020        -9.48961
   C       -9.45506       -23.15256       -10.87713
   N       -9.50523       -22.89620       -11.99402
   C      -10.00817       -22.36460        -8.74510
   N      -10.50612       -21.49893        -8.17887
   C       -8.20301       -25.91478       -11.02761
   C       -7.91288       -27.18718       -11.49590
   C       -8.01404       -28.29049       -10.65742
   C       -8.39060       -28.16366        -9.32651
  Br       -7.61703       -30.01411       -11.34764
   H        0.34510         1.32975         5.26126
   H        2.58995         1.91232         4.46903
   H        2.38859        -1.12032         1.43657
   H       -3.07440        -2.76812         4.02152
   H       -1.73876        -3.46675         0.39153
   H       -3.95893        -8.63055        -2.16989
   H       -6.70978       -10.91143         1.09938
   H       -8.34577       -16.39720        -1.28648
   H       -6.34942       -16.76201        -5.68625
   H       -7.47983       -22.41651        -7.88345
   H       -9.28573       -24.87934        -5.49664
   H       -8.10959       -25.06826       -11.68827
   H       -7.60466       -27.32386       -12.52100
   H       -8.46422       -29.01790        -8.67159
*
