# ORCA input file
# SCF done       -211.045038201059          0.000652964567
! CAM-B3LYP def2-SVP def2/J RIJCOSX Grid4 TightSCF
%maxcore 5000
%tddft
    Mode sTDDFT
    Ethresh 5.0
    maxcore 5000
end

%pal
  nprocs 6
  end
* xyz 0 1
   C        6.36168         1.07463        -0.86510
   S        4.73318         0.52266        -0.79044
   C        5.23168        -1.11829        -0.62945
   C        6.60748        -1.20123        -0.63635
   C        7.24810         0.06027        -0.77542
   N        7.34238        -2.41221        -0.57368
   O        6.73305        -3.45830        -0.45583
   O        8.55373        -2.32955        -0.63901
   C        4.23874        -2.19284        -0.58295
   C        3.43262        -2.40194        -1.70841
   C        3.65953        -1.53045        -2.89262
   O        4.73052        -1.46564        -3.46353
   C        2.55019        -0.64843        -3.27781
   C        1.22813        -0.72664        -2.93442
   S        0.31404         0.55875        -3.59019
   C        1.72365         1.24581        -4.31553
   C        2.83126         0.50470        -4.07861
   C        4.24167         0.86293        -4.43936
   O        4.91067         1.51559        -3.66674
   C        4.72181         0.40901        -5.75701
   C        6.05323         0.64783        -6.09673
   C        6.54410         0.23629        -7.31954
   C        5.71059        -0.41631        -8.21464
   C        4.38666        -0.65969        -7.88285
   C        3.89063        -0.25264        -6.65922
   C        2.49102        -3.42212        -1.69403
   C        2.33458        -4.20684        -0.56950
   C        3.10154        -3.98097         0.57431
   C        4.05341        -2.96623         0.55281
   C        2.89392        -4.79297         1.77915
   C        2.67549        -6.13896         1.68427
   C        2.43404        -6.90182         2.85165
   C        2.16334        -8.24781         3.02053
   C        2.17552        -9.29611         1.95650
   C        3.30232       -10.31763         2.24112
   N        4.62656        -9.73215         2.33072
   C        0.80922        -9.98399         1.78858
   N        0.67996       -10.49378         0.43414
   C        1.94037        -8.45400         4.43498
   C        1.57922        -9.54046         5.14074
   C        1.37731        -9.48965         6.61826
   C        1.66425        -8.16502         7.24325
   C        1.99607        -7.07854         6.52257
   C        2.12965        -7.16243         5.11605
   C        2.41764        -6.22711         4.14370
   C        2.66593        -4.83592         4.20484
   C        2.89944        -4.14872         3.05851
   C        2.14983       -10.63093         7.23627
   C        3.26980       -10.46571         7.93156
   C        4.02671       -11.54610         8.54780
   C        4.81267       -11.31143         9.69020
   C        4.91649        -9.95309        10.27928
   O        3.96395        -9.21135        10.41710
   C        6.27156        -9.55155        10.70486
   C        6.44756        -8.59940        11.67292
   S        8.09005        -8.32818        12.05052
   C        8.57585        -9.50367        10.89707
   C        7.52510       -10.06887        10.23934
   C        7.76392       -11.09187         9.18507
   O        8.53767       -12.00653         9.38170
   C        7.07120       -10.91432         7.88908
   C        6.52407        -9.69835         7.48341
   C        5.91449        -9.59466         6.24656
   C        5.84291       -10.69409         5.40452
   C        6.39339       -11.90327         5.80048
   C        7.01107       -12.01196         7.02990
   C        5.49044       -12.36889        10.29389
   C        5.45092       -13.63757         9.75818
   C        4.74549       -13.86966         8.57441
   C        4.03601       -12.82137         7.99606
   C        4.76035       -15.17486         7.94544
   S        4.30260       -15.35019         6.26538
   C        4.58014       -17.02623         6.30071
   C        5.00037       -17.43647         7.53911
   C        5.10832       -16.38245         8.47651
   N        5.29254       -18.79457         7.85063
   O        5.16052       -19.61285         6.96293
   O        5.65135       -19.04421         8.98205
   H        6.54899         2.12137        -0.98987
   H        8.31683         0.16245        -0.81181
   H        0.74236        -1.47429        -2.33989
   H        1.64207         2.15983        -4.86895
   H        6.68339         1.15354        -5.38072
   H        7.57627         0.42041        -7.57783
   H        6.09319        -0.73951        -9.17163
   H        3.74141        -1.17177        -8.58161
   H        2.85929        -0.44712        -6.40298
   H        1.90166        -3.61681        -2.57821
   H        1.59473        -4.99328        -0.56584
   H        4.67828        -2.79449         1.41573
   H        2.69662        -6.62671         0.72069
   H        2.39400        -8.81185         0.99879
   H        3.32638       -11.07514         1.45375
   H        3.10440       -10.81998         3.19313
   H        4.91844        -9.38185         1.42402
   H        4.59991        -8.93307         2.95913
   H        0.01989        -9.24063         1.93368
   H        0.68519       -10.76247         2.55968
   H        1.35371       -11.23313         0.26593
   H       -0.24543       -10.87974         0.28466
   H        1.40760       -10.50066         4.67491
   H        0.30955        -9.70929         6.79359
   H        1.56546        -8.11975         8.31678
   H        2.16794        -6.12816         7.00702
   H        2.65642        -4.33468         5.16175
   H        3.06465        -3.08184         3.08875
   H        1.73356       -11.61497         7.06758
   H        3.62813        -9.46327         8.11018
   H        5.67128        -8.07000        12.18965
   H        9.61673        -9.70624        10.73951
   H        6.59149        -8.83158         8.12497
   H        5.49454        -8.65016         5.93342
   H        5.38370       -10.60251         4.43205
   H        6.34734       -12.75774         5.14180
   H        7.45904       -12.93984         7.35333
   H        6.04609       -12.19620        11.20371
   H        5.99818       -14.43559        10.23217
   H        3.49132       -13.00077         7.08090
   H        4.42694       -17.64059         5.43560
   H        5.41518       -16.54915         9.49200
*
