# ORCA input file
# SCF done       -173.687288503911          0.000823805401
! CAM-B3LYP def2-SVP def2/J RIJCOSX Grid4 TightSCF
%maxcore 5000
%tddft
    Mode sTDDFT
    Ethresh 5.0
    maxcore 5000
end

%pal
  nprocs 6
  end
* xyz 0 1
   C       -6.50307        -5.13641         0.24687
   C       -5.27352        -5.22239         0.84869
   C       -5.08417        -5.96451         2.13714
   O       -6.04337        -6.48771         2.64693
   O       -3.88503        -6.01392         2.66647
   C       -4.43279        -4.48001        -0.05362
   N       -5.15795        -4.03321        -1.06145
   O       -6.42386        -4.43551        -0.87618
   C       -3.02238        -4.20401         0.03268
   N       -2.31912        -4.67193         1.04809
   C       -1.04578        -4.24505         0.85739
   C       -0.94411        -3.45172        -0.35906
   C        0.44143        -2.99072        -0.54742
   O        0.90116        -2.30055        -1.43252
   C        1.14090        -3.57182         0.61728
   C        0.18948        -4.33075         1.45369
   N        0.81629        -4.87320         2.52491
   C        2.06951        -4.50897         2.40786
   C        2.34179        -3.69395         1.23622
   C       -2.21132        -3.41791        -0.91122
   C       -2.69377        -2.80571        -2.09972
   C       -1.88535        -2.09533        -2.92354
   C       -2.26180        -1.44617        -4.14521
   C       -1.28401        -0.74773        -4.83515
   C       -1.59405        -0.09444        -6.03603
   C       -0.80055         0.66922        -6.89185
   C        0.64472         0.96920        -6.71568
   C        1.48361         0.43767        -7.89946
   N        2.82141         0.15827        -7.43527
   C        0.87845         2.47368        -6.48029
   N        2.26642         2.71800        -6.12281
   C       -1.65244         1.09281        -7.97782
   C       -1.40349         1.83408        -9.07353
   C       -2.47302         2.14232       -10.06841
   C       -3.80280         1.54019        -9.76631
   C       -4.03404         0.79178        -8.66990
   C       -2.99771         0.54712        -7.74014
   C       -2.95089        -0.16476        -6.55452
   C       -3.93156        -0.88339        -5.83440
   C       -3.59412        -1.49844        -4.67046
   C       -2.50359         3.64036       -10.23592
   C       -3.54154         4.41178        -9.89260
   C       -3.59506         5.83655       -10.00385
   N       -4.55170         6.49840        -9.36556
   C       -4.32920         7.80424        -9.59620
   C       -3.12487         7.99249       -10.41849
   C       -2.92776         9.41245       -10.74617
   O       -2.04236         9.91264       -11.41632
   C       -4.06877        10.05310       -10.08280
   C       -4.89449         9.04123        -9.38236
   N       -5.96531         9.62294        -8.79933
   C       -5.86844        10.89949        -9.09342
   C       -4.71792        11.23422        -9.90366
   C       -2.66956         6.73484       -10.72231
   C       -1.58815         6.43166       -11.61187
   C       -0.57975         7.30998       -11.77215
   C        0.44875         7.20135       -12.75559
   C        1.39679         8.12345       -13.17818
   C        1.72926         9.49742       -12.73274
   O        2.84969         9.91954       -12.84760
   O        0.76718        10.25305       -12.20391
   C        2.11195         7.41083       -14.17683
   N        1.63156         6.21334       -14.33416
   O        0.60656         6.06689       -13.46257
   H       -7.45516        -5.53178         0.53974
   H       -3.17702        -5.53453         2.13623
   H        2.79508        -4.81281         3.14184
   H        3.29955        -3.29806         0.96202
   H       -3.74440        -2.94639        -2.30056
   H       -0.84221        -1.99221        -2.65265
   H       -0.27929        -0.71339        -4.44029
   H        1.00493         0.43701        -5.83019
   H        1.44755         1.16587        -8.72591
   H        1.04322        -0.49941        -8.25697
   H        3.24861         1.01791        -7.10401
   H        3.39313        -0.24511        -8.16708
   H        0.16413         2.81689        -5.71214
   H        0.66924         3.03237        -7.39645
   H        2.47487         2.28657        -5.22745
   H        2.43770         3.71357        -6.03218
   H       -0.42900         2.25378        -9.27474
   H       -2.13549         1.73925       -11.03914
   H       -4.58276         1.72903       -10.48789
   H       -5.01013         0.36641        -8.48969
   H       -4.94041        -0.93608        -6.21570
   H       -4.34193        -2.04701        -4.12047
   H       -1.58927         4.07238       -10.61679
   H       -4.42296         3.97287        -9.44470
   H       -6.60630        11.59556        -8.73455
   H       -4.46627        12.21399       -10.25827
   H       -1.63734         5.53542       -12.21389
   H       -0.53047         8.18175       -11.13809
   H       -0.14060         9.90270       -12.18951
   H        2.93846         7.75945       -14.76078
*
