# ORCA input file
# SCF done       -211.580720096626          0.000779529637
! CAM-B3LYP def2-SVP def2/J RIJCOSX Grid4 TightSCF
%maxcore 5000
%tddft
    Mode sTDDFT
    Ethresh 5.0
    maxcore 5000
end

%pal
  nprocs 6
  end
* xyz 0 1
   C       -2.82920        -1.86275        -2.90360
   C       -3.76169        -2.00924        -3.91868
   C       -4.46189        -3.19714        -4.08208
   C       -4.24304        -4.27776        -3.24029
   C       -3.31141        -4.14570        -2.22439
   C       -2.60544        -2.93185        -2.04788
   C       -1.72742        -3.05821        -0.89573
   C       -0.80879        -2.14053        -0.46574
   C       -0.56390        -0.90708        -1.11169
   N       -0.31324         0.10793        -1.58317
   C        0.04207        -2.27972         0.65284
   N        0.75903        -2.30337         1.54966
   C       -2.04105        -4.34742        -0.27274
   C       -2.84523        -5.10169        -1.23052
   C       -2.92702        -6.46010        -1.31454
   C       -3.67874        -7.13579        -2.30065
   N       -4.27959        -7.72060        -3.08283
   C       -2.13819        -7.34488        -0.53962
   N       -1.40349        -8.09930        -0.08211
   C       -1.77000        -4.62928         1.03239
   C       -2.34187        -5.63900         1.84736
   N       -3.22520        -6.52867         1.41792
   C       -3.47157        -7.34626         2.46025
   C       -2.67370        -6.96171         3.63145
   C       -2.95247        -7.85837         4.77020
   O       -2.51076        -7.81092         5.89207
   C       -3.93512        -8.80298         4.19273
   C       -4.22970        -8.44227         2.78459
   N       -5.16034        -9.27662         2.26022
   C       -5.45306       -10.11104         3.22476
   C       -4.73228        -9.86335         4.46526
   C       -1.98255        -5.83739         3.27471
   C       -1.07587        -5.04596         4.05031
   C       -1.03224        -3.69575         3.97704
   C       -0.13200        -2.80294         4.61893
   S       -0.50487        -1.11044         4.51512
   C        0.96013        -0.67631         5.34216
   C        1.68309        -1.82196         5.69164
   C        1.07121        -3.01347         5.29174
   C        1.66442        -4.35198         5.57402
   C        3.07940        -4.29024         6.16006
   C        3.42811        -5.68166         6.72100
   O        2.77325        -6.65105         6.45697
   O        4.51383        -5.74687         7.47734
   C        3.19190        -3.15904         7.19213
   O        4.49356        -3.14517         7.74714
   C        2.93537        -1.81687         6.49817
   C        1.21507         0.66837         5.67554
   C        2.44269         1.15669         6.02485
   C        2.62390         2.35963         6.73048
   N        1.63574         3.17488         7.09897
   C        2.16558         4.01590         7.99295
   C        3.58370         3.70302         8.25469
   C        4.12999         4.58464         9.30310
   O        5.22916         4.53712         9.81744
   C        2.99868         5.47294         9.59123
   C        1.81893         5.09038         8.78635
   N        0.77534         5.90274         9.05333
   C        1.22318         6.75689         9.94882
   C        2.59998         6.54823        10.32526
   C        3.90939         2.68967         7.39429
   C        5.16033         2.04355         7.17136
   C        6.11322         1.96998         8.12976
   C        7.41319         1.43859         7.93102
   C        8.24808         1.09847         8.95692
   C        9.70424         1.02420         8.92087
   C       10.48981         0.85914         7.81481
   C        9.98711         0.66467         6.51003
   N        9.62475         0.49108         5.43507
   C       11.90046         0.81363         7.84405
   N       13.04611         0.77059         7.80532
   C       10.15546         1.16497        10.30010
   C        9.02986         1.15133        11.15895
   C        9.18128         1.27993        12.52950
   C       10.46238         1.42787        13.04007
   C       11.56843         1.43661        12.20134
   C       11.42946         1.30339        10.82709
   C        7.84496         0.95037        10.34710
   C        6.62922         0.46534        10.75769
   C        6.25650         0.32368        12.11123
   N        5.90756         0.20923        13.19776
   C        5.70101        -0.10376         9.86689
   N        4.97251        -0.68316         9.19135
   H       -2.30029        -0.93123        -2.78650
   H       -3.94775        -1.18321        -4.58757
   H       -5.18862        -3.28319        -4.87510
   H       -4.79744        -5.19252        -3.37201
   H       -1.10253        -3.95965         1.55336
   H       -6.17056       -10.89700         3.06464
   H       -4.83814       -10.42932         5.36922
   H       -0.47007        -5.59552         4.75369
   H       -1.79211        -3.19000         3.39158
   H        1.68951        -4.94862         4.65975
   H        1.02570        -4.88676         6.28493
   H        3.80945        -4.08923         5.36628
   H        4.85583        -4.85130         7.68371
   H        2.44476        -3.31741         7.98640
   H        4.59720        -2.34960         8.29941
   H        3.79705        -1.62054         5.85062
   H        2.89417        -1.02839         7.25493
   H        0.37356         1.34783         5.70955
   H        3.32927         0.57260         5.84311
   H        0.57402         7.52151        10.33840
   H        3.15074         7.13367        11.03454
   H        5.32447         1.57519         6.20939
   H        5.88902         2.38919         9.10308
   H        7.78328         1.40915         6.91522
   H        8.32612         1.28087        13.18630
   H       10.59850         1.54009        14.10444
   H       12.55533         1.55260        12.62186
   H       12.30011         1.31510        10.19194
*
