# ORCA input file
# SCF done       -270.663431675029          0.003212410661
! CAM-B3LYP def2-SVP def2/J RIJCOSX Grid4 TightSCF
%maxcore 5000
%tddft
    Mode sTDDFT
    Ethresh 5.0
    maxcore 5000
end

%pal
  nprocs 6
  end
* xyz 0 1
   C       -7.00270         5.85723        -9.01458
   C       -5.94971         6.75461        -8.92399
   C       -4.87972         6.52310        -8.07094
   C       -4.82915         5.38613        -7.28031
   C       -5.87709         4.48386        -7.35600
   C       -6.96885         4.71858        -8.22592
   C       -7.92511         3.63660        -8.08219
   C       -8.98423         3.35460        -8.89439
   C       -9.33067         4.11943       -10.02897
   N       -9.65297         4.69518       -10.96735
   C       -9.81481         2.22250        -8.74362
   N      -10.50220         1.30594        -8.67706
   C       -7.50319         2.87207        -6.90253
   C       -6.10840         3.23986        -6.64838
   C       -5.17599         2.48050        -6.00324
   C       -5.42165         1.18648        -5.49813
   N       -5.54361         0.11558        -5.10406
   C       -3.83242         2.87485        -5.83151
   N       -2.73305         3.14896        -5.64994
   C       -8.35495         2.20013        -6.10391
   C       -8.13103         1.67479        -4.76569
   C       -7.48871         2.41284        -3.75230
   C       -7.07440         3.81025        -4.00076
   O       -7.75915         4.58159        -4.65678
   C       -5.78495         4.25228        -3.45700
   C       -4.78699         3.48970        -2.90468
   S       -3.40224         4.40845        -2.51892
   C       -4.13604         5.84344        -3.13269
   C       -5.39356         5.62435        -3.58934
   C       -6.27218         6.65586        -4.22026
   O       -5.96861         7.16485        -5.27784
   C       -7.48351         7.03137        -3.45946
   C       -8.44712         7.80857        -4.09969
   C       -9.59973         8.17653        -3.43526
   C       -9.79956         7.77567        -2.12376
   C       -8.84169         7.01071        -1.47743
   C       -7.68681         6.63805        -2.13853
   C       -7.37131         1.84680        -2.48473
   C       -7.85086         0.58172        -2.22337
   C       -8.47922        -0.17282        -3.22112
   C       -8.62711         0.41110        -4.47989
   C       -9.01732        -1.47908        -2.91095
   C       -9.37046        -2.39737        -3.82832
   C      -10.01531        -3.66691        -3.59851
   C      -10.27912        -4.46933        -4.68838
   C      -11.00890        -5.66370        -4.54409
   C      -11.44878        -6.59662        -5.47495
   C      -11.13050        -6.72601        -6.92267
   C      -11.36909        -5.44145        -7.73490
   N      -11.71814        -5.81526        -9.09343
   C       -9.68213        -7.23711        -7.07825
   N       -9.41865        -7.60243        -8.46255
   C      -12.20903        -7.58216        -4.74219
   C      -12.90324        -8.64918        -5.17462
   C      -13.56713        -9.57889        -4.22727
   C      -13.46391        -9.17945        -2.78718
   C      -12.82994        -8.06355        -2.38026
   C      -12.18078        -7.22711        -3.32037
   C      -11.46622        -6.04730        -3.21392
   C      -11.14390        -5.23133        -2.10660
   C      -10.44456        -4.08290        -2.29665
   C      -13.07925       -11.00116        -4.39504
   C      -12.30161       -11.43332        -5.38454
   C      -11.81608       -12.80389        -5.47751
   C      -10.55315       -13.13164        -6.02403
   C       -9.67382       -12.11428        -6.63577
   O      -10.00225       -10.96790        -6.87693
   C       -8.28516       -12.52559        -7.00088
   C       -7.94555       -13.39887        -7.98737
   S       -6.24649       -13.45785        -8.26247
   C       -5.98131       -12.27166        -7.05999
   C       -7.13802       -11.85930        -6.46377
   C       -7.18321       -10.81488        -5.41497
   O       -6.39909        -9.88927        -5.40413
   C       -8.25431       -10.97393        -4.40058
   C       -8.89366        -9.83868        -3.90987
   C       -9.90715        -9.96104        -2.98024
   C      -10.27793       -11.21314        -2.51721
   C       -9.61891       -12.34452        -2.96928
   C       -8.61293       -12.22780        -3.91192
   C      -10.12402       -14.46280        -5.94907
   C      -10.89348       -15.45201        -5.38348
   C      -12.16469       -15.14867        -4.88837
   C      -12.60525       -13.82947        -4.97415
   C      -13.00964       -16.07287        -4.17423
   C      -12.61822       -17.18377        -3.51851
   C      -13.48614       -17.90223        -2.63765
   C      -14.43072       -17.33485        -1.83189
   C      -15.56572       -18.04370        -1.24480
   C      -15.69771       -19.39342        -1.06756
   C      -14.70923       -20.35415        -1.37050
   N      -13.95166       -21.18944        -1.58526
   C      -16.83877       -20.01135        -0.51173
   N      -17.73670       -20.57501        -0.07226
   C      -16.55080       -17.03197        -0.88630
   C      -15.98401       -15.75130        -1.08445
   C      -16.71710       -14.60648        -0.81320
   C      -18.01793       -14.74462        -0.35480
   C      -18.57669       -16.00053        -0.16340
   C      -17.85120       -17.15416        -0.42295
   C      -14.61392       -15.91556        -1.53457
   C      -13.63971       -14.94877        -1.47747
   C      -13.88796       -13.57688        -1.29952
   N      -14.01312       -12.43414        -1.25528
   C      -12.25682       -15.18783        -1.60909
   N      -11.11284       -15.29394        -1.63482
   H       -7.83389         6.05514        -9.67249
   H       -5.96977         7.65340        -9.52136
   H       -4.08143         7.24554        -8.00757
   H       -4.00213         5.22761        -6.60762
   H       -9.36538         2.05117        -6.46396
   H       -4.78135         2.43060        -2.73385
   H       -3.60011         6.77116        -3.10512
   H       -8.27057         8.10267        -5.12317
   H      -10.34564         8.77397        -3.93750
   H      -10.70237         8.05924        -1.60325
   H       -8.99826         6.70339        -0.45392
   H       -6.94064         6.04834        -1.62575
   H       -6.93733         2.42947        -1.68563
   H       -7.74763         0.16732        -1.23119
   H       -9.13772        -0.12392        -5.26523
   H       -9.12126        -1.69147        -1.85557
   H       -9.18137        -2.18237        -4.87222
   H       -9.94583        -4.16438        -5.66826
   H      -11.78924        -7.48301        -7.35905
   H      -10.47592        -4.79995        -7.68352
   H      -12.21250        -4.88893        -7.30700
   H      -10.94428        -6.34850        -9.48464
   H      -11.86114        -4.98821        -9.66507
   H       -9.53833        -8.08164        -6.38571
   H       -8.98649        -6.44316        -6.79312
   H       -9.91403        -8.46335        -8.67775
   H       -8.42825        -7.79043        -8.58320
   H      -13.00611        -8.86670        -6.22776
   H      -14.64201        -9.60309        -4.48263
   H      -13.92848        -9.84749        -2.07870
   H      -12.79346        -7.80393        -1.33182
   H      -11.46815        -5.52454        -1.11883
   H      -10.21223        -3.45467        -1.45136
   H      -13.38936       -11.66047        -3.59515
   H      -11.94082       -10.75356        -6.13730
   H       -8.59840       -13.99061        -8.59844
   H       -4.98764       -11.94181        -6.83087
   H       -8.59261        -8.86904        -4.27610
   H      -10.40637        -9.07810        -2.61365
   H      -11.07490       -11.30635        -1.79440
   H       -9.89120       -13.31866        -2.59100
   H       -8.08475       -13.10883        -4.24753
   H       -9.15105       -14.72511        -6.33307
   H      -10.52058       -16.46272        -5.33693
   H      -13.59130       -13.58614        -4.60569
   H      -14.04206       -15.75669        -4.07210
   H      -11.62605       -17.58819        -3.66292
   H      -13.39641       -18.97992        -2.64928
   H      -16.29460       -13.62571        -0.96224
   H      -18.60262       -13.86167        -0.14591
   H      -19.59169       -16.08456         0.19340
   H      -18.30215       -18.12039        -0.26747
*
