# ORCA input file
# SCF done       -220.643703688115          0.000743735109
! CAM-B3LYP def2-SVP def2/J RIJCOSX Grid4 TightSCF
%maxcore 5000
%tddft
    Mode sTDDFT
    Ethresh 5.0
    maxcore 5000
end

%pal
  nprocs 6
  end
* xyz 0 1
   C       10.83464         9.57041         4.30809
   C       10.21608        10.68777         4.81945
   C       10.36255        11.13020         6.14688
   N       10.41999        11.52236         7.22546
   C        9.42698        11.56531         4.05371
   N        8.80051        12.32867         3.46636
   C       11.87345         8.80549         4.99634
   C       12.58924         8.04607         4.02663
   C       13.64268         7.25157         4.37114
   C       14.02833         7.16851         5.72913
   C       13.30867         7.91442         6.70534
   C       12.22531         8.73746         6.31622
   C       13.69891         7.81817         8.05594
   C       14.75065         7.02511         8.42703
   C       15.45868         6.29075         7.46498
   C       15.10528         6.36169         6.14464
   C       11.98263         8.26597         2.69905
   O       12.35243         7.82537         1.63182
   C       10.78144         9.10111         2.94888
   C        9.84774         9.21359         1.95060
   C        8.48878         9.54860         2.02169
   C        7.62500         9.60956         3.11439
   C        6.31300         9.90126         2.78642
   C        6.15951        10.07749         1.39752
   S        7.61424         9.84981         0.52819
   C        4.85240        10.38962         0.96733
   C        3.88418        10.50181         1.97456
  Si        4.67639        10.20182         3.64707
   C        4.00263         8.67848         4.50571
   C        4.71606        11.71107         4.75152
   C        2.62667        10.77090         1.43485
   C        2.60509        10.85958         0.05442
   S        4.20411        10.61774        -0.60723
   C        1.47379        11.05306        -0.81394
   C        0.22559        11.32912        -0.30354
   C       -0.89503        11.41367        -1.15613
   C       -2.24365        11.61762        -0.90871
   C       -2.99502        11.98803         0.33110
   C       -2.37246        11.54603         1.65907
   N       -1.95784        10.15249         1.60883
   C       -3.20677        13.51686         0.35086
   N       -4.06746        13.89584         1.45870
   C       -2.92433        11.48357        -2.17941
   C       -4.23233        11.49505        -2.49458
   C       -4.70942        11.22976        -3.88275
   C       -3.61627        11.10811        -4.90086
   C       -2.31253        11.10000        -4.57071
   C       -1.91519        11.24110        -3.21945
   C       -0.69321        11.19627        -2.58812
   C        0.61115        10.97306        -3.09051
   C        1.65479        10.91091        -2.23176
   C       -5.70819        12.26622        -4.32164
   C       -6.94850        11.95957        -4.71193
   C       -7.94212        12.87806        -5.18520
   C       -7.89745        14.24888        -5.33913
   C       -9.07653        14.80068        -5.84829
   C      -10.03612        13.80910        -6.08419
   S       -9.48568        12.23346        -5.67930
   C      -11.27158        14.25100        -6.61124
   C      -11.37532        15.63900        -6.82661
  Si       -9.77589        16.47704        -6.32485
   C       -9.97758        17.62945        -4.86338
   C       -8.87470        17.26759        -7.76226
   C      -12.61333        15.98061        -7.34769
   C      -13.46634        14.89750        -7.54106
   S      -12.68131        13.39451        -7.05036
   C      -14.76573        14.77018        -8.05546
   C      -15.67987        15.69865        -8.48915
   C      -16.97961        15.33812        -9.02915
   C      -17.43596        14.08198        -9.34413
   C      -18.71658        13.81670        -9.87243
   N      -19.73996        13.51676       -10.29931
   C      -16.72342        12.87050        -9.22833
   N      -16.22985        11.83299        -9.19002
   C      -17.73602        16.56826        -9.23968
   C      -16.90548        17.66939        -8.89417
   C      -15.59418        17.17388        -8.43809
   O      -14.66280        17.87403        -8.08854
   C      -17.33566        18.96045        -8.99416
   C      -18.64805        19.21540        -9.45159
   C      -19.48866        18.11863        -9.79580
   C      -19.01225        16.79192        -9.68324
   C      -20.79717        18.38227       -10.24884
   C      -21.25521        19.66707       -10.35747
   C      -20.42640        20.74656       -10.01808
   C      -19.15050        20.52542        -9.57515
   H       14.17660         6.69032         3.61871
   H       11.69365         9.28618         7.07800
   H       13.15218         8.38796         8.79307
   H       15.04276         6.95993         9.46460
   H       16.28540         5.66871         7.77455
   H       15.64714         5.79844         5.39884
   H       10.20855         8.90865         0.97231
   H        7.94850         9.39101         4.11675
   H        3.99108         7.80692         3.85385
   H        2.98244         8.83171         4.85120
   H        4.59568         8.41661         5.37967
   H        5.18627        12.56098         4.26064
   H        5.28052        11.52232         5.66266
   H        3.71859        12.02324         5.05442
   H        1.74305        10.87590         2.03760
   H        0.09094        11.43959         0.75583
   H       -3.98702        11.52138         0.26511
   H       -3.11172        11.75738         2.44804
   H       -1.49320        12.15723         1.87637
   H       -2.74169         9.56417         1.34653
   H       -1.63740         9.84954         2.52222
   H       -3.59880        13.82888        -0.63248
   H       -2.23901        14.00437         0.49446
   H       -5.00783        13.54341         1.31106
   H       -4.12345        14.90493         1.53522
   H       -5.00543        11.65847        -1.75528
   H       -5.23860        10.26262        -3.84867
   H       -3.94052        11.00465        -5.92514
   H       -1.55363        10.98187        -5.33065
   H        0.75612        10.84260        -4.15283
   H        2.65421        10.72990        -2.60002
   H       -5.34764        13.28391        -4.33578
   H       -7.26644        10.92394        -4.69025
   H       -7.02994        14.83285        -5.08968
   H      -10.47629        17.14920        -4.02352
   H      -10.57026        18.50250        -5.12842
   H       -9.01892        17.99502        -4.50090
   H       -8.75558        16.58490        -8.60149
   H       -7.87929        17.60424        -7.47969
   H       -9.41038        18.13872        -8.13364
   H      -12.91356        16.98386        -7.58757
   H      -15.09396        13.73848        -8.10588
   H      -16.68260        19.77802        -8.72661
   H      -19.67648        15.98562        -9.94945
   H      -21.43101        17.54741       -10.50980
   H      -22.25917        19.85858       -10.70583
   H      -20.80389        21.75421       -10.10926
   H      -18.50761        21.35300        -9.31242
*
