# ORCA input file
# SCF done       -201.210094147490          0.000945676180
! CAM-B3LYP def2-SVP def2/J RIJCOSX Grid4 TightSCF
%maxcore 5000
%tddft
    Mode sTDDFT
    Ethresh 5.0
    maxcore 5000
end

%pal
  nprocs 6
  end
* xyz 0 1
   C        3.68348         9.57504         4.30601
   C        3.37730        10.22309         5.47179
   C        4.31585        10.93470         6.25011
   N        5.02928        11.52740         6.92576
   C        2.10175        10.23571         6.07514
   N        1.08988        10.28241         6.61518
   C        4.99553         9.51848         3.67462
   C        4.94247         8.61467         2.57387
   C        6.03087         8.37253         1.78634
   C        7.24073         9.04811         2.05784
   C        7.30271         9.95451         3.15640
   C        6.16340        10.17659         3.96154
   C        8.51708        10.62240         3.41798
   C        9.61642        10.40985         2.63206
   C        9.55355         9.51982         1.54886
   C        8.39163         8.85352         1.26861
   C        3.58799         8.04889         2.47378
   O        3.23541         7.07436         1.84858
   C        2.76680         8.82635         3.45936
   C        1.41277         8.81261         3.50318
   C        0.59572         8.30644         2.44964
   C       -0.73484         7.69710         2.58874
   N       -1.30111         7.38934         1.46051
   C       -0.42929         7.78607         0.48832
   C        0.78829         8.35651         1.09083
   C        1.65532         8.86759         0.05886
   S        3.00313         9.79313         0.27461
   C        0.99233         8.52903        -1.16605
   C       -0.30005         7.88416        -0.87102
   N       -0.97390         7.61039        -2.02722
   C       -0.22051         8.04466        -2.98860
   C        1.04808         8.64739        -2.54147
   C        2.06689         9.16187        -3.37165
   S        3.62547         9.57435        -2.73174
   C        4.22358        10.03229        -4.28344
   C        3.22392         9.91190        -5.25499
   C        2.00608         9.40736        -4.75374
   O        0.87771         9.14157        -5.41936
   C        0.83492         9.21740        -6.84232
   C       -0.40927         8.47137        -7.29421
   O        3.39640        10.33264        -6.54937
   N        3.32224        11.77262        -6.74167
   O        3.42148        12.08308        -7.86874
   O        3.16777        12.40548        -5.75995
   C        5.57375        10.44368        -4.40431
   C        6.24270        10.62047        -5.57293
   C        7.59351        11.03159        -5.67160
   C        8.58708        11.23611        -4.60654
   N        9.74490        11.65075        -5.02438
   C        9.63022        11.77189        -6.38197
   C        8.28421        11.36313        -6.81718
   C        8.14401        11.53249        -8.23462
   S        6.88001        11.07090        -9.18252
   C        9.39438        12.12659        -8.63910
   C       10.31594        12.20282        -7.48553
   N       11.51600        12.72155        -7.87311
   C       11.40006        12.97343        -9.14278
   C       10.07499        12.66496        -9.69973
   C        9.65516        12.85851       -11.05285
   C        8.39860        13.22621       -11.39364
   C        7.78056        13.20735       -12.71252
   C        8.42230        13.06885       -13.91289
   C        7.76692        13.05285       -15.16292
   N        7.29495        13.03514       -16.20880
   C        9.82075        12.96071       -14.06690
   N       10.94984        12.87074       -14.25363
   C        6.34431        13.35369       -12.51642
   C        6.08790        13.62062       -11.13912
   C        7.36389        13.70295       -10.41671
   O        7.56705        14.17625        -9.32136
   C        4.81984        13.76898       -10.65469
   C        3.72950        13.65898       -11.54410
   C        3.97596        13.41533       -12.92687
   C        5.29889        13.25991       -13.39834
   C        2.87710        13.32883       -13.80654
   C        1.59757        13.47049       -13.34343
   C        1.35631        13.69905       -11.97979
   C        2.39943        13.79053       -11.09903
   H        5.96417         7.68340         0.95769
   H        6.24026        10.87161         4.78276
   H        8.56068        11.30619         4.25287
   H       10.54139        10.92635         2.83985
   H       10.43076         9.36521         0.93854
   H        8.33778         8.16515         0.43769
   H        0.88464         9.25294         4.33976
   H       -1.21732         7.48336         3.52662
   H       -0.52109         7.94466        -4.01483
   H        1.73417         8.76434        -7.27226
   H        0.77849        10.26751        -7.15488
   H       -0.34941         7.42687        -6.99970
   H       -0.49467         8.52965        -8.37495
   H       -1.29429         8.91191        -6.84307
   H        6.08877        10.59357        -3.46544
   H        5.75344        10.43967        -6.52042
   H        8.42385        11.06294        -3.55714
   H       12.21737        13.39648        -9.70054
   H       10.39854        12.65700       -11.81396
   H        4.64815        13.95018        -9.60483
   H        5.45278        13.06224       -14.44750
   H        3.06682        13.14966       -14.85470
   H        0.76294        13.40554       -14.02539
   H        0.33902        13.80408       -11.63292
   H        2.22533        13.96270       -10.04757
*
