# ORCA input file
# SCF done       -206.592055561957          0.000807743979
! CAM-B3LYP def2-SVP def2/J RIJCOSX Grid4 TightSCF
%maxcore 5000
%tddft
    Mode sTDDFT
    Ethresh 5.0
    maxcore 5000
end

%pal
  nprocs 6
  end
* xyz 0 1
   C        0.09139         1.66282         2.51965
   C       -0.72910         2.72924         2.77555
   C       -1.80973         2.68215         3.68024
   N       -2.70536         2.67832         4.39747
   C       -0.51544         4.01792         2.24095
   N       -0.33101         5.09374         1.88607
   C        0.10681         0.39434         3.23677
   C        1.36341        -0.24146         3.00648
   C        1.67534        -1.43956         3.58220
   C        0.72671        -2.07078         4.41774
   C       -0.53586        -1.44721         4.63942
   C       -0.82989        -0.20259         4.03718
   C       -1.47570        -2.09233         5.46868
   C       -1.18390        -3.29428         6.05382
   C        0.05942        -3.90672         5.83620
   C        0.99454        -3.30783         5.03635
   C        2.17036         0.58133         2.08790
   O        3.30235         0.39526         1.70959
   C        1.25541         1.68016         1.65530
   C        1.52628         2.40716         0.54360
   C        0.61193         3.18752        -0.21375
   C       -0.83170         2.94336        -0.38221
   N       -1.41728         3.75981        -1.20330
   C       -0.44524         4.61997        -1.62601
   C        0.84725         4.26677        -1.03050
   C        1.87588         5.16464        -1.50121
   S        3.46632         5.09709        -1.08046
   C        1.19250         6.04640        -2.40442
   C       -0.23512         5.68976        -2.45678
   N       -0.90718         6.49264        -3.33529
   C       -0.01307         7.28585        -3.83574
   C        1.34617         7.07966        -3.31437
   C        2.48148         7.79954        -3.72802
   S        2.40013         8.89811        -5.09982
   C        3.76101         7.72905        -3.18683
   C        4.66970         8.53865        -3.84740
   C        6.10374         8.83459        -3.83073
   C        7.05067         8.36723        -2.99115
   C        8.51775         8.58387        -3.24548
   N        8.90879         9.96526        -2.97103
   C        6.72697         7.55039        -1.77239
   N        6.95199         6.13796        -2.06899
   C        4.07277         9.21597        -4.94123
   C        5.06187         9.93479        -5.62166
   S        5.18109        10.97200        -6.97808
   C        6.30197         9.72664        -4.97218
   C        7.32608        10.44828        -5.56018
   C        6.90364        11.16861        -6.67598
   C        7.73853        11.94817        -7.49320
   C        7.37890        12.58212        -8.64472
   C        8.29323        13.30122        -9.44302
   C        7.97620        13.82811       -10.77701
   N        8.96995        14.39856       -11.38739
   C       10.02559        14.31320       -10.52572
   C        9.63084        13.62958        -9.27840
   C       10.74776        13.59768        -8.38231
   S       10.81156        13.16913        -6.78708
   C       11.83446        14.17924        -9.13045
   C       11.35096        14.65184       -10.43478
   N       12.34999        15.29205       -11.10940
   C       13.38063        15.27207       -10.31696
   C       13.14771        14.57606        -9.04493
   C       14.04956        14.46356        -7.94707
   C       14.03370        13.42395        -7.07614
   C       14.63716        13.35015        -5.75590
   C       15.55582        14.21416        -5.22378
   C       16.09177        14.09504        -3.92391
   N       16.56985        14.04592        -2.88165
   C       16.11869        15.31079        -5.91005
   N       16.61236        16.21603        -6.41487
   C       14.06918        12.18524        -5.08686
   C       13.29243        11.44518        -6.02388
   C       13.33625        12.12199        -7.33314
   O       13.03269        11.66424        -8.41216
   C       12.64110        10.29782        -5.67483
   C       12.72013         9.84091        -4.34097
   C       13.48111        10.58410        -3.39256
   C       14.15865        11.75940        -3.78717
   C       13.54606        10.12122        -2.06166
   C       12.89801         8.97683        -1.68475
   C       12.15549         8.24083        -2.62113
   C       12.06548         8.66577        -3.91934
   H        2.63433        -1.90179         3.40122
   H       -1.79594         0.24478         4.21321
   H       -2.43039        -1.61563         5.63543
   H       -1.91000        -3.77994         6.68819
   H        0.27258        -4.85538         6.30545
   H        1.95349        -3.77459         4.86535
   H        2.53738         2.33187         0.15396
   H       -1.38023         2.13564         0.07062
   H       -0.27926         8.03290        -4.56413
   H        3.96159         7.08237        -2.35202
   H        8.73298         8.38979        -4.30101
   H        9.07107         7.84732        -2.64460
   H        8.68615        10.20865        -2.01138
   H        9.91246        10.06678        -3.08788
   H        5.71159         7.77619        -1.41883
   H        7.42523         7.82573        -0.97400
   H        6.30149         5.82824        -2.78439
   H        6.77108         5.57988        -1.24107
   H        8.33455        10.49882        -5.19614
   H        8.76649        12.01763        -7.16134
   H        6.35983        12.51056        -9.00473
   H        7.01198        13.75181       -11.25044
   H       14.31454        15.71750       -10.61237
   H       14.71677        15.30219        -7.79243
   H       12.06274         9.75216        -6.40552
   H       14.72826        12.29894        -3.04714
   H       14.12360        10.68773        -1.34615
   H       12.95760         8.62899        -0.66438
   H       11.65943         7.33335        -2.30991
   H       11.49826         8.10086        -4.64491
*
