69
 SCF done       -122.615298151774          0.000855220941
C           2.12923100384961   -2.63227778561162   -0.44911374022491
C           1.97671574938418   -3.73908801378254   -1.17443257820470
C           3.38021970104120   -2.06391523296728   -0.16469210101068
C           4.45828436830108   -1.57179205323923    0.08928195327531
C           5.69180434557795   -0.99609791631924    0.38658909985089
C           6.86941158077977   -1.49941442562225   -0.03591327753776
C           8.13245508802872   -0.88986624231398    0.28116814732019
C           9.34627760486336   -1.42871063042741   -0.18042303456510
N          10.50801943260759   -0.88462096347141    0.09155379208650
C          10.51508130175535    0.22881505387310    0.84446706130565
C           9.30231959504143    0.76922587099452    1.31583017542444
N           8.14572992089615    0.22203859189203    1.03777685452645
C          11.78944744495563    0.80385498152076    1.11624741398414
C          12.12652787424488    1.94692708364732    1.84629267976613
C          13.53712804845828    2.19689328784267    1.86836767119526
N          14.03823036872856    3.25976822221306    2.52289502225696
C          13.17382365814148    4.03114529094433    3.12504791569331
C          11.77325978955719    3.79127390561136    3.11333368999131
C          10.83906405290813    4.71187474208369    3.82439545474006
N          11.26226012863721    2.76311167628677    2.48163542115278
C          14.27854115809546    1.23724604169992    1.15276200113519
S          13.20808198226836    0.05249060150723    0.47400356870059
C          15.66486434454224    1.14650088276139    0.93913211643494
C          16.56888639757034    2.04809576777824    1.42462986250605
C          17.95229212675986    1.96317149979391    1.19655494903999
C          18.69683990868968    1.01059137553884    0.47366304517758
C          20.10185758719949    1.28169897940636    0.46087093039048
N          20.95606234726175    0.46465934829898   -0.18697390900341
C          20.42780015553635   -0.56494160671689   -0.78991700299403
C          19.03495940810711   -0.84210187738430   -0.78590857238448
C          18.49057883467892   -2.03232791434033   -1.50188200588550
N          18.18841850255599   -0.06033997603219   -0.15888994897445
C          20.45207247065461    2.44151938951083    1.17133090879131
S          19.02420568693719    3.16548449982526    1.84098713505392
C          21.71636590089788    3.03218068964959    1.37847006210628
C          22.87538535784078    2.53480575943347    0.87488837859713
C          24.15112698426645    3.12493742068232    1.07545647207668
S          25.56154855751007    2.41164989666042    0.33828892901632
C          26.63948237494103    3.59616521595687    1.00930368681204
C          25.90228906436818    4.50175733891558    1.77078796135949
C          24.51805364876504    4.23678521261411    1.79289677023632
N          26.37689244645950    5.61889196329610    2.51498978348354
O          27.53368758936874    5.64499680895742    2.88455779771873
O          25.56541721651348    6.48960075868801    2.76499190876568
C          28.01078536230630    3.46964831174760    0.59352143363010
C          29.06166404762104    4.22559061195171    0.91202333830254
H           1.27225757868187   -2.11378801642334   -0.03515269457247
H           2.82311263884444   -4.26312963454245   -1.58615728254795
H           1.00313278630934   -4.15218120634416   -1.37411665373210
H           5.69042882941928   -0.09499621795092    0.98653859304205
H           6.89935729367733   -2.39586543952937   -0.64058201140321
H           9.36796639537936   -2.32474213373954   -0.78760819603466
H           9.29809850263090    1.66107447152995    1.92511091722138
H          13.57867940764865    4.88622476641210    3.64996246080832
H          10.89538902401846    5.70925220038418    3.39066852900549
H          11.11238092312217    4.78705200491335    4.87553934513610
H           9.82184890319875    4.34117024659545    3.73986415248077
H          16.02223067335521    0.31418045858308    0.34995559359578
H          16.21214405848837    2.88103345153939    2.01394830121539
H          21.11536107237286   -1.22027810311367   -1.30836779759995
H          19.00269558712712   -2.93641131684970   -1.17769644100544
H          18.64665094697416   -1.92422078071805   -2.57467658868713
H          17.42656866087652   -2.12529700875605   -1.30474615336154
H          21.72437215330757    3.93498285774099    1.97360350818132
H          22.83602043646607    1.63508447619960    0.27867267286140
H          23.83479162884948    4.85827456526327    2.34187530439828
H          28.15688317608575    2.63355400817644   -0.08140292021980
H          29.00602997857452    5.05154330021198    1.59680123428658
H          30.02819882515847    4.00478060706843    0.49262890584889
