63
 SCF done       -116.296444428112          0.000768046779
C           7.43010174256563    7.29910728997208   -1.02577555544877
C           7.42489494230279    8.06532042525836   -2.11799204909024
C           7.50296599974328    5.90135043618165   -1.07553104926364
C           7.57058479134318    4.68907081489686   -1.11470454178629
C           7.65258305903991    3.30777683145931   -1.17049599395077
C           7.73669981164176    2.51736375528995   -0.06709676396995
C           7.83524556987893    1.11147744712529   -0.17977181294668
N           7.96794802290850    0.48054198544593   -1.34269494763062
C           8.09690680675089   -0.81959388783589   -1.05325657649258
C           8.05226558077063   -1.05129641747895    0.40931784161803
C           8.16414678985091   -2.49616133760030    0.71512700219597
O           8.12090096365431   -3.04159874442018    1.79181993788126
C           8.31123896069496   -3.08577191003306   -0.62565190620581
C           8.25912418551636   -2.03789776352210   -1.66899247002475
N           8.37874057899497   -2.58523071243718   -2.90100939766329
C           8.49848467207771   -3.87589445446916   -2.69287589629900
C           8.46072425772780   -4.25716235058488   -1.29880167386876
C           7.87120745444924    0.17243346601437    0.96726306398502
C           7.72872322447987    0.54619756343469    2.35172523607280
C           6.73734556560249    1.25554594350189    2.99563346717779
C           5.44446914584847    1.69929582132564    2.44513434712003
O           5.28558097684687    2.28610730489972    1.40436259013483
O           4.42304637523446    1.24196396183449    3.18423197825741
C           7.17760937486145    1.26311998730012    4.35840605200272
N           8.31539132924060    0.61667348809820    4.46894311893241
O           8.64755478657192    0.15920141660608    3.24708736721800
C           6.55316547985838    1.97561745277971    5.42501573728264
C           5.71583553817665    3.07105609542378    5.26382973795933
C           5.27529070354317    3.62198323082032    6.51036345490050
N           4.44868138507510    4.68672194814746    6.54001911196230
C           4.09984292721431    5.17386222982127    5.38315725884387
C           4.55840699013365    4.65416066902180    4.13494128083311
C           4.14629793920375    5.27946329424148    2.84482179691595
N           5.35595455928958    3.61954772858955    4.08526985648503
C           5.79069174459676    2.94044999806073    7.61738147266779
S           6.81462384336100    1.64310507503476    7.09412271213449
C           5.52512320002332    3.24765607716803    8.97756680432165
C           6.04308694274895    2.57330265438064   10.02276093070850
C           5.80084949643505    2.85493105070622   11.42471052054565
C           5.04111485740636    3.86129681090622   11.89437827494745
C           6.43942118892012    1.97119340231016   12.33090569210261
C           7.00034640374262    1.20032226811711   13.07242837921675
C           7.64176013338351    0.31627122216972   13.95861240751702
C           8.39925440672769   -0.69964196845104   13.55464206294952
H           7.38409579206953    7.73511012930275   -0.03494856984296
H           7.47406599048083    7.63661195348023   -3.10504174451638
H           7.37453891989082    9.13835267980888   -2.05247472994479
H           7.65272702209986    2.83953808194505   -2.14693138450941
H           7.71961287537318    2.94935425597609    0.92200043803073
H           8.61203319327998   -4.54998187398950   -3.52425527759359
H           8.53871140584637   -5.25752092742239   -0.92162473852208
H           3.58266734904573    1.52383382238451    2.79105900618654
H           3.43239486022207    6.02526235468359    5.40163314976565
H           4.51420349666030    4.68075326699643    2.01542343079391
H           4.55834421258095    6.28510700080477    2.77021986789563
H           3.06144027712776    5.35787263241888    2.79187415480866
H           4.85823592251511    4.08715509999676    9.11548979626963
H           6.70324212617389    1.73755191002459    9.82336855446768
H           4.54207901335234    4.55385954075767   11.24111018630555
H           4.90903461352830    4.00621074363192   12.95236767767450
H           7.48172513374315    0.51205778828685   15.01230888567954
H           8.56263404854789   -0.90030140239815   12.50882978209365
H           8.87795103903143   -1.35944665621781   14.25754265472280
