100
 SCF done       -180.146699504473          0.000824840593
C           4.62634356211863   -1.11310087267415    1.71040384284013
C           3.35909471797552   -0.63394439563029    1.00233097944877
N           3.08111561018045   -1.44447428151345   -0.16274528033324
C           2.86671392500542   -2.80706511319670   -0.05968079489688
C           2.30914687457622   -3.53608121451274    0.99330482158969
C           1.65393533737442   -2.86023110790503    2.12619981797710
C           0.44124183017243   -2.19128554066725    1.89440800365651
N          -0.13464559401960   -2.29496498177347    0.67223778021140
C          -1.27813702092743   -1.70891937159129    0.48959820747012
C          -1.92468817316068   -0.98692719510142    1.52378139647501
N          -1.40366349107773   -0.86273872655528    2.70654547931471
C          -0.19966316984562   -1.44065403723681    2.93142437824738
C           0.39491724969967   -1.32893823248768    4.19771053954147
C          -0.19701484772785   -0.47861256216958    5.22256715009168
C          -0.44400128611976   -0.97661019731693    6.51136502378141
N          -0.20896204488552   -2.28382710904364    6.77924724077104
C          -0.42503748717157   -2.70131697068214    7.98935582736092
C          -0.89708913030208   -1.83777253364684    9.01167454171202
N          -1.18635671893443   -0.59347248051547    8.78279921865434
C          -0.98318564265907   -0.11872930181846    7.52643777930068
C          -1.30039998645744    1.20420426533609    7.23676963521955
C          -1.08379234680407    1.69760307291029    5.95478580299810
N          -1.40288165606191    2.98809804287581    5.67568911168730
C          -1.16630929210602    3.42136301913792    4.47637012148866
C          -0.56937016994740    2.60408544622374    3.48006266296482
N          -0.24901716423857    1.36602786407377    3.71014186921097
C          -0.51881315270478    0.85846682076014    4.93940312907603
C           1.57857606854992   -2.04037924266251    4.44761151196243
N           2.19178513259485   -1.90966070838772    5.65033237230767
C           3.26942121109072   -2.60194427255256    5.86347961714617
C           3.81918126694653   -3.46017364372330    4.87782306059252
N           3.31264473118490   -3.54636140887407    3.68546616017016
C           2.18468399490077   -2.83946352281818    3.42144437642111
C           2.29016072288131   -4.91791400492759    0.87452056826867
C           2.75345278006327   -5.55789704528065   -0.27038660567009
C           3.22917260439051   -4.83603525043877   -1.34709914608899
C           3.29043443270502   -3.45289706218907   -1.24208283929201
C           3.74920331548764   -2.41455371765053   -2.12350313503278
C           4.29390159515791   -2.42614861945630   -3.39997437159990
C           4.67467035546319   -1.22548327025183   -3.96912738695536
C           4.47528676539881   -0.02243510207990   -3.30356733945360
C           3.89433395959751    0.02360397490455   -2.04286250896282
C           3.53933145232879    1.28594728481463   -1.39033269658572
C           4.47906749860970    2.26284345924918   -1.03012315339927
N           5.74380933135061    2.18436816039367   -1.50550504148408
C           6.61068900057550    3.05552468600486   -1.08359280191345
C           6.26755700681134    4.06080167419507   -0.14579539007979
N           5.06757372236033    4.16965594864445    0.33955718055702
C           4.12978634673628    3.28708867203794   -0.08220588434569
C           2.84966026998791    3.32540230492801    0.48002476244814
C           2.56918555278258    4.11153019171481    1.68702937810855
C           2.39330419993144    5.49674929051616    1.66742442480577
N           2.48915659468831    6.16671369921536    0.49215778035374
C           2.33483959707267    7.45472544117688    0.52343405651478
C           2.06434586818689    8.15544397765776    1.72889099168353
N           1.93596441971989    7.54793251709367    2.86861740201731
C           2.09372166603656    6.19866962921376    2.88383985068878
C           1.96082182750475    5.50896250132878    4.08473383142459
C           2.15228761674722    4.13197889687787    4.11083170748173
N           2.04485480033654    3.45964636387916    5.28806521225628
C           2.26333156198926    2.18095970840656    5.27074692522901
C           2.61791481293797    1.49055874190268    4.08096205564346
N           2.72243784163571    2.09081343616025    2.93514430646125
C           2.47317252806946    3.42615230640143    2.90527615334123
C           1.86201634832496    2.47120276505767   -0.02320736545376
N           0.58972539605991    2.56931093317477    0.43314304781565
C          -0.29329347351548    1.74674210744045   -0.05262107419650
C           0.03285015606791    0.80384292099461   -1.05500988770753
N           1.24668447016374    0.66459684414436   -1.49827293459157
C           2.20206504000124    1.46989888860546   -0.98816460102017
C           3.58120545544446   -1.19515521538897   -1.42636989375400
H           4.83231106300762   -0.47008534847632    2.56256464423505
H           5.47107732694774   -1.06370176029009    1.02582612481570
H           4.52111360148363   -2.13942877817238    2.05538533963352
H           3.50654929153926    0.40049020317376    0.70431856916460
H           2.50532908812885   -0.65531568014612    1.68279261186147
H          -1.73679834247575   -1.83106148485075   -0.48272543465493
H          -2.89669411288176   -0.53593549808651    1.36966901697885
H          -0.24545035049155   -3.75066756271174    8.18380468503462
H          -1.05377203976902   -2.19932689054235   10.01945532339631
H          -1.70827372297712    1.84467666149034    8.00170386624778
H          -1.42842094664725    4.44966733684839    4.26523146930984
H          -0.33611787687821    2.98996602778944    2.49576850464139
H           3.74482813610167   -2.48044950145120    6.82806708377755
H           4.70157506063796   -4.05300130678291    5.07851104867467
H           1.87722402397887   -5.50140375509768    1.68349823139826
H           2.70967758687135   -6.63557590602421   -0.32240855377101
H           3.54957134076463   -5.33234569573213   -2.25049158073463
H           4.41647907607462   -3.35654319304767   -3.93350046537685
H           5.11022049788140   -1.21394293705550   -4.95706718558659
H           4.73846797167419    0.90757326843126   -3.78247655205158
H           7.60867056182622    2.98895617656404   -1.49575095801454
H           6.99606613296266    4.78808499834057    0.18749659601890
H           2.41380842724195    7.97960241145159   -0.41952764466702
H           1.94375609339295    9.23086315986704    1.73276724438123
H           1.72063236587000    6.03956458351470    4.99181780072972
H           2.17367555804298    1.65177157626433    6.21067339605830
H           2.82692718043576    0.42977715462138    4.10322833452715
H          -1.30544284315288    1.84162091291637    0.31931203507932
H          -0.72560672689685    0.18732328249926   -1.51648451279929
