88
 SCF done       -148.314888383348          0.000539479393
C           0.97743845680355   -1.14679267886148    1.44208863824858
C          -0.31618021427809   -0.63864420964970    1.47707747967000
C          -0.81747403889481    0.15263579697212    0.39018824018558
N          -2.06692312721317    0.67534694605404    0.45286768137152
C          -2.78655924877957    0.40650673168564    1.50033697767120
C          -2.30169143607586   -0.40277958126028    2.55976955573833
N          -1.10281530394852   -0.90057305957683    2.55336985190181
C          -0.01273095139370    0.42221899344075   -0.73015203103124
C           1.29332198561260   -0.09866720278721   -0.75350490344542
C           1.78570166677557   -0.88450805334195    0.34179753516603
N           3.04912078871199   -1.38325802498721    0.31367521532236
C           3.77674066609614   -1.12742810647329   -0.73053830595772
C           3.28289423968565   -0.37185946778370   -1.82421434762975
N           2.08114267280971    0.12225300046363   -1.83485199633975
C          -0.52815990407663    1.19658921128362   -1.85612657819790
C           0.23323243330880    2.18069111079217   -2.47448101427333
C          -0.27891226323141    2.86862902605544   -3.57677117062209
C          -1.57289133279052    2.51942647213588   -3.98815261727228
N          -2.29925174737650    1.58461151151357   -3.41163544766688
C          -1.79897417892175    0.93353014996544   -2.38225004543465
C           0.44417645461977    3.89012248613881   -4.29698215367043
C           1.56248157940685    4.50944281462289   -3.86775958375769
C           2.28503995522704    5.50378427252642   -4.58676724562075
S           3.19066134728378    6.67899643531358   -3.70039956335157
C           3.63999055990537    7.56971359731721   -5.12213835672552
C           3.16445898976443    6.91722694112921   -6.26754968621655
C           2.39620664997972    5.74730134124517   -5.96242375525118
C           1.92328265894495    4.94061772004267   -7.01220142275612
C           2.14350629914609    5.28242701906913   -8.32464808848754
C           1.64882135009527    4.42264134826971   -9.39755373387908
C           0.54174239835688    3.69436239328010   -9.33160921036112
C           2.89726697023411    6.45573968237363   -8.63131522653494
C           3.15315957862093    6.83288986857347  -10.05890878283650
C           3.39915282131692    7.23024689619780   -7.62229250079023
C           4.36005544269614    8.77783500959670   -4.90951511714944
C           4.55979202535694    9.78739588940620   -5.78155496502537
C           5.29353484561465   11.00033304085328   -5.50294893740867
C           5.76066851263084   11.37306459665778   -4.24218205694941
C           6.46112015210795   12.56793164889799   -4.06752353608860
C           6.65824192723802   13.35930939754669   -5.20913662252470
N           6.22205139038162   13.02564917688280   -6.40780744211554
C           5.56504904827336   11.89236234757245   -6.55216715595464
C           6.91370050787582   12.92913226197137   -2.74188484344628
C           7.69522845879577   13.98372928058285   -2.44378316935541
C           8.15454904528744   14.37731032681467   -1.13896802439203
C           7.72732999003972   13.81440536118382    0.08741308498918
C           8.27785600384646   14.27423690289550    1.33229312178266
N           7.87832890057736   13.72650465255542    2.50901066490553
C           6.98286887567232   12.78713235015300    2.47037286752407
C           6.41913719030947   12.34843497211153    1.24921997354712
N           6.78109990928933   12.84716763020323    0.10360097422666
C           9.23166997150972   15.28561539487946    1.36552894599637
C           9.64803077321034   15.86866071969094    0.17461019140855
C           9.10917120273981   15.42325122279378   -1.07547391663059
N           9.52008832454750   16.00573858035737   -2.22681504966660
C          10.40827209714591   16.95291284069681   -2.15386665543100
C          10.94777202314655   17.38250012653228   -0.91654457740865
N          10.57572513980639   16.86036897595907    0.21268671694541
H           1.35096985353218   -1.73892921912316    2.26128795322393
H          -3.77862369112648    0.83677635701563    1.53197165330132
H          -2.91844617464769   -0.62409863295084    3.42071472939547
H           4.78158689433596   -1.52882074716382   -0.73743618030359
H           3.89219193279898   -0.18681091245724   -2.69903576168007
H           1.21872493698528    2.40276471687624   -2.09735868465111
H          -2.04111956005768    3.02950441250008   -4.82095497411327
H          -2.41972865253978    0.15380914566016   -1.96554174560821
H          -0.00176273918001    4.19335040283224   -5.23366379004174
H           1.93435151412163    4.30567832244138   -2.87163391009663
H           1.43281017022699    4.00924775036795   -6.78123970597690
H           2.23995981885267    4.40182222903277  -10.30282781530318
H          -0.10407621327769    3.70574238647926   -8.46959368756149
H           0.22790249232895    3.06959088911674  -10.15010487313331
H           2.21837015964754    6.88569832277608  -10.61500567129771
H           3.79330398812240    6.09540912228353  -10.54360839925284
H           3.64727846267142    7.79963321808621  -10.11622922045368
H           4.01563404828530    8.07861617025688   -7.87091641861849
H           4.74586465053715    8.87818839573561   -3.90248053494674
H           4.14631552221908    9.73176719264160   -6.77704044366542
H           5.57729483487120   10.74680521289115   -3.38093562961315
H           7.17713590871131   14.30568950928091   -5.15524168056754
H           5.23287265722753   11.67186811420036   -7.55913906270883
H           6.58304201809604   12.28037936129805   -1.94353669817529
H           8.07031761790860   14.62266778164292   -3.23132728410296
H           6.67909287925714   12.35833561871360    3.41639297352588
H           5.65526129284748   11.58211774091728    1.22529853669389
H           9.64499715356520   15.61020730364870    2.30604292623647
H          10.71591087218466   17.40438125635941   -3.08781433428486
H          11.68833881765273   18.17010449009387   -0.87176014516455
