95
 SCF done       -168.209216023177          0.000817400930
C           2.53377263622963    3.07735049545295    4.58485108391239
C           2.69821858670143    4.27562028870403    3.89921696226555
C           2.02433979305922    4.50072538917128    2.65216625848676
N           2.17547881174252    5.68408294692952    2.00698731240509
C           2.95347047864293    6.57595487034934    2.54381705217338
C           3.63207876044026    6.34542911010944    3.76723796296125
N           3.50356033424719    5.23425364821765    4.42585322822582
C           1.18442706742076    3.51415377879250    2.10475022118551
C           1.03502524495434    2.30395952011708    2.80415788340164
C           1.71229392489454    2.09107020960768    4.05085817714933
N           1.55436288908702    0.92230647385479    4.72524957441757
C           0.78769754418443    0.01861603119206    4.19576886638591
C           0.14648875335492    0.21434865057902    2.94523759259060
N           0.26864864181643    1.31935575180185    2.27341714991628
C           0.45796352132136    3.75735424519875    0.86134539613600
C           1.06164118244595    4.36701142403758   -0.23171727530149
C           0.31695093197439    4.62527038440087   -1.38561394472663
C          -1.02214214754568    4.20459184114148   -1.37966849868780
N          -1.60134923974721    3.62923658795789   -0.34695859857858
C          -0.89681937395914    3.41979634617585    0.74572692457972
C           0.83646516331390    5.28087059691888   -2.56042779459105
C           2.08246154804735    5.78391701553528   -2.69918412855175
C           2.51134292443282    6.44245236411700   -3.88524823201597
N           3.78923106049197    6.92688794181330   -4.06405935591507
C           4.90065252394724    6.78798872740802   -3.15617578509289
C           5.50509280375228    5.38652605314708   -3.20407481681760
C           3.94632313272423    7.55487247943712   -5.31035718020419
O           4.99695829114755    8.04502244728564   -5.68376195745967
C           2.64657683894858    7.45417515204898   -5.92852454907402
C           1.79073643496812    6.75559820533779   -5.03140532129755
C           0.48650314426192    6.66758549794848   -5.64337465276172
O          -0.55876444549404    6.16414230949816   -5.27695147626128
N           0.63175936811778    7.33753265206117   -6.87049281260377
C          -0.46334421547323    7.42307478117368   -7.80527043554127
C          -0.32384666101197    6.41261290840851   -8.94149470790139
C           1.91205135548985    7.80927382201570   -7.05423141444077
C           2.31971835426475    8.54960132526500   -8.19846047910379
C           3.59619807040643    8.95785319753364   -8.37545410175366
C           4.09502204787739    9.72531863063044   -9.48725113916119
C           3.27548433986811   10.30517135203971  -10.45485243716837
C           3.81137044744118   11.04254366542095  -11.49816209360752
N           2.88231127814307   11.55895595570172  -12.46662593239993
O           1.72196110870848   11.66902715839191  -12.12137295678286
O           3.29206527143814   11.83629254091484  -13.57515906415472
C           5.19917449240745   11.24259453812463  -11.63022390091989
C           6.01068513416985   10.64813838408919  -10.65214300676175
C           5.48158226386628    9.91888088806322   -9.61541954554617
C           5.78164769553526   12.07582716843035  -12.65602773486482
C           6.98381430033223   11.83386176537435  -13.21028156269011
C           7.62380036852561   12.63770313959893  -14.21615719704879
C           8.67509941610008   12.05618636579672  -14.96299543422014
C           9.31077204153732   12.77163544085802  -16.02906168050084
N          10.29402723766600   12.18619178912944  -16.76033159319970
C          10.62699984058917   10.96797334216802  -16.45821459252436
C          10.01429676047449   10.26594946427797  -15.39085175820492
N           9.07199094595079   10.79542956558035  -14.66761783827427
C           8.91588541000895   14.06889818523803  -16.33727282166701
C           7.91349127175600   14.67506731810371  -15.58690056163961
C           7.26982621792489   13.97284869670597  -14.51312085100126
N           6.34156347093730   14.61113084048879  -13.76335675396538
C           6.01761135331885   15.82855399084058  -14.08590727130288
C           6.61353816073599   16.49839354777954  -15.18221824916564
N           7.54749936179871   15.94591852898162  -15.89505710692436
H           3.03820791898379    2.91538402797299    5.52318083178324
H           3.05523721738228    7.51429182335359    2.01449408171582
H           4.27699273812077    7.09919840141023    4.19898372956541
H           0.66702182522327   -0.90458582333672    4.74680741662696
H          -0.46418574694201   -0.55991152586004    2.50058637414144
H           2.10794682936403    4.62186907593990   -0.17866991013148
H          -1.64341538152813    4.34931627781376   -2.25385753061921
H          -1.42763537281605    2.97538363534538    1.57508749712814
H           0.14172803766845    5.37763119465659   -3.38438100331524
H           2.79813124548612    5.70788848532033   -1.89374864924209
H           4.58040057473152    7.03971131538908   -2.14085783705600
H           5.64655206915938    7.51947960673432   -3.48038529873146
H           4.76956847065310    4.63417823917740   -2.92820006874660
H           6.34615999339925    5.32319991151835   -2.51911621305879
H           5.85844832655568    5.17074769868228   -4.20913892348553
H          -0.53583528189417    8.44185018772017   -8.19666247025650
H          -1.36691366548163    7.20369447539794   -7.22932693926269
H           0.59204709177990    6.58016542398332   -9.50410743323937
H          -1.17052189427806    6.49911167898116   -9.61674785225713
H          -0.30186681207950    5.40304225948083   -8.53862726966414
H           1.56023560156943    8.77638460690607   -8.93202362203685
H           4.33186220519101    8.68919404345839   -7.62906222073148
H           2.20238405008790   10.19747542152866  -10.41664092225501
H           7.07684656249933   10.80277952018189  -10.71020801544861
H           6.13471299244254    9.48373574182378   -8.87365326094644
H           5.21041601193084   12.92517419094698  -13.00001127733709
H           7.51803690554071   10.92210107074067  -12.97685414074870
H          11.40866131559161   10.51241766999190  -17.05152491384901
H          10.32058986931168    9.26112122990882  -15.13146638615741
H           9.37288112317226   14.59665576223647  -17.15805968668220
H           5.28158067353121   16.31737528227731  -13.46151796770197
H           6.32665023503126   17.50746135693240  -15.44653116170618
