90
 SCF done       -167.719201991748          0.000275488535
C           2.48206734493296    9.06675907631123   -2.96475716676223
C           2.72081690901996    8.95918918382518   -1.59776144505233
C           2.14737548567991    7.88885335627209   -0.83356709520788
N           2.46201011985819    7.74266206839499    0.47106983179610
C           3.20012726076335    8.65513547400794    1.02540103264410
C           3.69300282166486    9.76820386200207    0.29288596704100
N           3.49379444330830    9.89036083920375   -0.98366848058639
C           1.29106631190431    6.96023856541014   -1.45466658788692
C           1.02215574544701    7.10518775565037   -2.83121190870382
C           1.64724494356014    8.14607540003911   -3.59120551928354
N           1.41839702022534    8.24417406576774   -4.92614538207549
C           0.59247231777372    7.39730840517973   -5.46510409310099
C          -0.07860596699598    6.41311444035956   -4.70119406842472
N           0.13427702035566    6.27422141833215   -3.42588132734234
C           0.66655664911767    5.89785842002578   -0.70655489343427
N           0.10003747743226    6.07278642556870    0.46235385169785
C          -0.50048528560561    4.90072243425587    0.76739281279873
C          -0.33162166104926    3.91819773143837   -0.31649507500855
C          -0.99980382880638    2.64994687912804    0.03111505040905
O          -1.11245558175105    1.64259633449783   -0.63316442157777
C          -1.52056362839509    2.92474417078785    1.38256665549755
C          -1.20698026603772    4.31100433859318    1.78641838575476
N          -1.65782125932626    4.55566177382085    3.04094833579599
C          -2.20330897573366    3.43132608433661    3.43572932691831
C          -2.13974375598379    2.36651256191547    2.45481831030021
C           0.47261451693700    4.52463502555753   -1.24388765125120
C           1.07462216973831    4.06646333290148   -2.44737225366232
S           2.71907458211901    4.46515401399164   -2.79311655099446
C           2.66419021241867    3.72917381929208   -4.37081176433196
C           1.40601111492065    3.12950208545038   -4.58559575369181
C           0.51854412589556    3.29742932335745   -3.48217645444196
C          -0.77261817018480    2.76082472450786   -3.53316383314018
C          -1.17066331332824    2.00712389393101   -4.61602745868358
C          -2.50278955097304    1.40565095425447   -4.62618656507076
C          -3.10940190551743    0.95280428767012   -3.53642667383884
C          -0.27254554805695    1.79809926810225   -5.70204981264455
C          -0.68495596486559    0.94321397906112   -6.85934754203278
C           0.98349250688784    2.35447180798503   -5.67761043849997
C           3.81218990833247    3.79391161789418   -5.17776391011182
C           3.84718439615502    3.76683050768123   -6.54342873250965
C           5.06323555198777    3.73549079236125   -7.25316729117591
N           6.22230304608596    3.38352658400708   -6.68981048106854
C           7.11569819717935    3.32862152454038   -7.68230298468112
C           6.49716469108209    3.67104028369931   -8.98145917368055
C           7.50079260199869    3.65756851970507  -10.06331807131784
O           7.35464975124145    3.94029208194959  -11.23277760119778
C           8.72010980094158    3.24701642652890   -9.35081059619278
C           8.44966741308700    3.06585923427025   -7.90973893099401
N           9.57891146538805    2.72195090184231   -7.25110627729605
C          10.51542812581072    2.67964942813267   -8.17387700490004
C          10.05125975808290    3.00297746260931   -9.50052481062870
C           5.19659206876462    3.96045963704458   -8.70670887396019
C           4.19696699066438    4.47372942015089   -9.61179321456824
C           4.05106376339871    3.90781474420504  -10.89008787889055
C           3.20851985767979    4.53292994792634  -11.86715633256846
N           3.13342052664317    4.01839798276245  -13.12065975730955
C           3.84862427743593    2.97045409914428  -13.39033790162028
C           4.62428019528494    2.31250128521746  -12.39864783185529
N           4.70184284394236    2.76055443215570  -11.18417717067983
C           2.49480528501733    5.68388883760093  -11.54841785303931
C           2.60996757021833    6.23569618974076  -10.27623627044512
C           3.46439232111056    5.63075172684606   -9.29501091042957
N           3.61941201207697    6.20594714227749   -8.07772604209690
C           2.99050155528256    7.31833397894268   -7.84394760351387
C           2.13566132397766    7.91046778543372   -8.81029857162815
N           1.94009237734321    7.37881564002161   -9.97830380247315
H           2.92192271142496    9.87364225755293   -3.52838122776691
H           3.45249077781910    8.51310138356992    2.06713178612176
H           4.29186584335006   10.53249391195266    0.76941644124003
H           0.42347558990542    7.48342815443139   -6.53011610613201
H          -0.79589237813944    5.73901945499648   -5.14979464176637
H          -2.65237375092604    3.35822227475236    4.41091662696937
H          -2.51729734373948    1.37186005872558    2.58752899094799
H          -1.44788822033212    2.92742240500839   -2.71226008904723
H          -2.98747489668737    1.32231267685625   -5.58993636732858
H          -2.63431082299875    0.97648504220832   -2.56963243502567
H          -4.09263862961235    0.51596150876990   -3.58038737020139
H          -1.03118873664425   -0.02785164563476   -6.50933358286910
H           0.14719750702865    0.79246010819555   -7.54235643994220
H          -1.50111119025054    1.41025858916110   -7.41101320315088
H           1.66801600789431    2.16454077189141   -6.48938487284516
H           4.75917273189099    3.93898170516443   -4.67335992178582
H           2.93647386615338    3.80820759322889   -7.12171351416145
H          11.52569069201680    2.42116557076697   -7.90731510155944
H          10.65595825645869    3.03187502836406  -10.38539172806493
H           3.79510997751272    2.58793353470299  -14.40073540683400
H           5.14819179042914    1.39224788831751  -12.61682732426214
H           1.89430723230822    6.17396281941278  -12.29727465437767
H           3.13008752354368    7.76907559797501   -6.87063104275829
H           1.60710134800999    8.82961751373313   -8.59439227839092
