85
 SCF done       -162.117690212227          0.000875485479
C           4.99234180344631    6.88583734303104   -3.27113987074536
C           5.09576115067174    6.79413345159988   -1.88581277976763
C           4.07617099075932    6.14067297479469   -1.11791802759468
N           4.23933555278101    5.96354163834978    0.20899208887605
C           5.28714347958592    6.48568731366529    0.77125206793946
C           6.25976732052293    7.20037417158211    0.02559852926679
N           6.18406927951372    7.31715732514929   -1.26606764596314
C           2.92858174930145    5.62589663109908   -1.75756561855926
C           2.79290183796079    5.80955078569012   -3.14960799417130
C           3.86026656549014    6.39072991452645   -3.90964750571933
N           3.78880726484458    6.42871802706351   -5.26449011832706
C           2.71395112092971    5.96710063556327   -5.83017235524531
C           1.61086661526140    5.50636842542492   -5.07291466163902
N           1.65484909017355    5.42809748127256   -3.77304449756912
C           1.95699444920885    4.87862375302633   -1.00265002790674
N           1.53836802358834    5.21838274564610    0.19375879837205
C           0.64104614817387    4.27284682304083    0.56019591543440
C           0.46758857323708    3.26946589718157   -0.50692006527348
C          -0.47601621556610    2.21761280174163   -0.08679769447508
O          -0.80760458046130    1.21078914627433   -0.66998969265770
C          -0.88274343204472    2.68276564504699    1.25581745563463
C          -0.16925659637226    3.93006837439995    1.61088711365498
N          -0.51702552791556    4.33812614764041    2.85875624799958
C          -1.37581336484919    3.44661505125352    3.28420774724345
C          -1.64331918059970    2.38075619252278    2.33842558568829
C           1.32060715561574    3.63465714681204   -1.50392788738128
C           1.53485828222168    3.05492252757736   -2.79721878142952
C           0.42517978925979    2.64374786822590   -3.56578805302499
C           0.60726719794533    2.13066003384853   -4.88244586873591
N          -0.46088152429536    1.72693487792247   -5.59171484295647
C          -1.64884371019126    1.84088288260256   -5.06458381378283
C          -1.82781999087062    2.42924784335762   -3.79528513695969
N          -0.81673074973125    2.81889966770717   -3.07498712821354
C           1.89429762656883    2.03409615365508   -5.48349586495852
C           2.99327203912130    2.52066480185258   -4.72500961725883
C           2.81905522695712    2.94063490014402   -3.36799233082088
N           3.89615762734094    3.28152398490146   -2.62707973287003
C           5.05722530171434    3.35614279073448   -3.21482707619861
C           5.18707265305268    3.13954525223758   -4.60135433257466
N           4.18962926197154    2.69652661318639   -5.31633089892577
C           2.00188914775086    1.53850298055823   -6.80653030128141
S           0.63398082607841    1.68995920758075   -7.85909289018852
C           1.50242658096898    1.07212111337310   -9.22720250248018
C           2.79633489484553    0.66202898095571   -8.85054617137594
C           3.07606259048032    0.91018303529318   -7.47577161173149
C           4.27342553940550    0.42621165605894   -6.93675206625399
C           5.21209127215368   -0.19586053450107   -7.73375296647730
C           6.44789027425702   -0.70052805453347   -7.14058199318728
C           7.05030838821057   -0.16612139903373   -6.08558608128513
C           4.96377606599989   -0.36605032842179   -9.12558349245740
C           5.99419605933362   -0.99887292248695  -10.00859285837809
C           3.76690150025387    0.04393914861505   -9.65499980250872
C           0.92265791037458    0.97150177728064  -10.50625681508448
C          -0.35711060291561    1.32436674711314  -10.79811531401906
C          -0.95596527515988    1.23242161194218  -12.07761829907535
S          -2.62104768821037    1.72826078654071  -12.28249150000425
C          -2.61201882572710    1.34714417495917  -13.95624355646512
C          -1.39915898926542    0.86462776575484  -14.34467823964683
C          -0.45456948632208    0.79604051097410  -13.28994979823241
S           1.12146154317771    0.18556139852938  -13.71006966504621
C           0.77901436435462   -0.09699059847759  -15.43801988780791
O           1.59087308669380   -0.53382968524294  -16.19041563568743
S          -0.87522897479692    0.33520978579576  -15.92433731493892
H           5.78374855832599    7.33826649595581   -3.84674211651870
H           5.40023537672967    6.32671109597646    1.83495253427278
H           7.12304412033778    7.64230410144696    0.50518390362235
H           2.68672796089518    5.97687649781361   -6.91126657062373
H           0.68360839642114    5.21412553944827   -5.54776587364870
H          -1.81841580733603    3.54145393026727    4.26090181708378
H          -2.30855219837902    1.55572708166329    2.50115591832083
H          -2.48064081039251    1.48192078570587   -5.65448281909131
H          -2.81286060237450    2.58346476108452   -3.37764937971627
H           5.90558062386622    3.60625976984715   -2.59246676306816
H           6.11565646798180    3.32181989263369   -5.12451723082466
H           4.45088573741889    0.50687819555105   -5.87859811633550
H           6.88799293664243   -1.56517756553997   -7.61836911964875
H           6.67233136697668    0.71638889466798   -5.59679946096349
H           7.95716042052811   -0.58360442871079   -5.68274783754539
H           6.95778952501174   -0.50657555246932   -9.88826137944961
H           5.69568747127033   -0.93177675908094  -11.05157672758370
H           6.12035495973173   -2.05245367188456   -9.75835902572940
H           3.56157782317813   -0.11934764163586  -10.70242127665895
H           1.55654674088510    0.58914786992586  -11.29393572079641
H          -0.99060760646606    1.70452119701654  -10.00827912542846
H          -3.48695996758104    1.49679631041091  -14.55389849449641
