70
 SCF done       -148.975111175283          0.000388927030
C           3.81676294921939   -0.09169358976342   -0.10877993285789
C           2.78046126184427    0.09253694280502   -1.01878680838724
C           1.87680293193143    1.20085392292555   -0.89579594550282
N           0.98648366508544    1.45372284082353   -1.87789878905844
C           0.89884606257129    0.60805634266919   -2.86046788153399
C           1.70193127778123   -0.55893182079569   -2.91433221479760
N           2.63535491377192   -0.78905863254983   -2.04146393887793
C           1.96641849269109    2.07313400683276    0.21146369783584
C           3.06559539494278    1.91102054775393    1.08390420098855
C           3.98776834954899    0.82664293340981    0.92273389345450
N           5.03608454883953    0.70023435338230    1.77374931062460
C           5.17503099027484    1.59361191301881    2.70701445554845
C           4.26090830613548    2.66356396573394    2.86825890753601
N           3.23566448314586    2.80074748435365    2.07977718966022
C           1.02524406409307    3.12079799194117    0.46230910118543
C          -0.30688580956378    3.21326378673364    0.09646775799020
F          -1.01177923171272    2.23667972912547   -0.48318761357197
C          -0.91422571774453    4.41146575442999    0.48908229178223
F          -2.22158966117391    4.61990015232608    0.30063155460551
C          -0.06380659411135    5.26701973318378    1.16897055845735
S           1.47579922404944    4.49804292569103    1.42179423461358
C          -0.31257305053919    6.57322098056145    1.69020104476791
C           0.43823567137418    7.03698782959858    2.79423870888053
C           0.18124734134752    8.30196353610513    3.41240749297915
N           0.81246138077109    8.61258998210864    4.56067085776188
C           1.73081831316093    7.80962479624007    5.01117864139397
C           2.07298427299608    6.61994968439959    4.33039353665734
N           1.40921911852241    6.23972889352478    3.27817526976226
C          -0.77576239114258    9.18902506902835    2.86645737677142
C          -1.52602155834378    8.72132451472207    1.76263676683284
C          -1.27331820242311    7.45588376472965    1.14714721686992
N          -1.90739714900958    7.13498770807043    0.00268444061134
C          -2.82843286585073    7.93536321775716   -0.44780481400621
C          -3.17260466929771    9.12432551428285    0.23346587258123
N          -2.50430927526228    9.51099381196360    1.28051105892617
C          -1.03170774275503   10.50296179112568    3.37336640200971
C          -0.23348448713967   11.34266477193397    4.13260558254969
F           1.04333949913227   11.11659962461733    4.45800290300375
C          -0.84653492472151   12.55826453499315    4.46510164275862
F          -0.23271222665224   13.43646869962830    5.26472007877367
C          -2.13640070463769   12.68248522272579    3.98209598934802
S          -2.57141099323440   11.25930566027650    3.08642242907702
C          -3.05969632152209   13.77344092729805    4.09696324364353
C          -2.65800535489815   15.11377829645676    4.28790875932071
C          -3.63723309182797   16.13856299418233    4.51630047474685
N          -3.23923826588443   17.40834098790644    4.78681711595647
C          -1.96627598250214   17.66348275414668    4.76991512052680
C          -1.01266258838990   16.67939494232482    4.40588966468413
N          -1.35459407792469   15.44680791079036    4.17904015819903
C          -4.99777185995488   15.85481113730025    4.45781215952118
C          -5.41006197372316   14.55990101650700    4.15840104001744
C          -4.44391356663573   13.51787188794306    3.97855321998150
N          -4.84756604571990   12.26511866252336    3.68900268702473
C          -6.12193365669771   12.03805863673215    3.56149759061626
C          -7.07737925491282   13.06826252511729    3.74107911559316
N          -6.73322987239039   14.28600618450228    4.03676880420360
H           4.49216455552278   -0.92405809130959   -0.21653557528386
H           0.19713189509993    0.84793622866536   -3.64721396717117
H           1.58589346174090   -1.28408474290505   -3.70855580416770
H           6.02267887657071    1.47913972755118    3.36928695082955
H           4.37725147303369    3.39601707169699    3.65437640961996
H           2.20051648420319    8.08589342128513    5.94474110515175
H           2.86122632171199    5.96653826147588    4.67628321762320
H          -3.30283500842229    7.65491382751132   -1.37768710155613
H          -3.97045939396844    9.77069538069220   -0.10414482092983
H          -1.66672792998772   18.67457397504248    5.01140103723263
H           0.03335979252855   16.92407726749849    4.28353658410739
H          -5.72289791130852   16.63352390124024    4.62699178946219
H          -6.41648485498403   11.02607327848518    3.32067885431251
H          -8.13663110667488   12.87091073691495    3.64403963873981
