87
 SCF done       -162.001268881441          0.000439674332
C          -1.38942878131494   -1.23161401731095   -0.85834290577547
C          -1.38626951173362   -0.28031846077574   -1.87090237657801
C          -1.17282269209805    1.10858960470300   -1.56699547733486
N          -1.38073459947161    2.01040022482908   -2.54212048718552
C          -1.61309304426040    1.60317672200700   -3.76049069623886
C          -1.60363758745213    0.23062282936610   -4.08256394316514
N          -1.54484517663537   -0.67870109815710   -3.15615964601422
C          -0.81458259134582    1.52044832620360   -0.25204634414889
C          -1.11707196548025    0.58043156529123    0.77360855734114
C          -1.33125661174657   -0.80648089842527    0.46327000825337
N          -1.43647725991933   -1.71821753116932    1.45989074005372
C          -1.44563290185772   -1.29298357853413    2.68797268090056
C          -1.45397592908404    0.08525554659767    2.98484223636827
N          -1.27001025485207    0.97642453261472    2.04899573561458
C          -0.23318663244153    2.80539480901260    0.02617845617959
C           0.08078554791888    3.74468435058808   -0.99574789416305
C           0.30913098968602    5.12820077203033   -0.68839525599992
N           0.46016396811396    6.02500029808899   -1.68900988862677
C           0.47563451781340    5.59934338806919   -2.91787610288256
C           0.45076023282211    4.22300991026149   -3.20927732485966
N           0.24315196441721    3.34255411490780   -2.26791339405815
C           0.36734645748941    5.57511707279541    0.64269343180066
C           0.35594164929114    4.59942318160434    1.65190814925993
C           0.13685662582961    3.21574135505856    1.33819769928657
N           0.36110409147458    2.30687941760279    2.30298428853106
C           0.60082538516651    2.69748206961971    3.52491933345946
C           0.54768620120466    4.06343175675532    3.86500630663467
N           0.47974170547263    4.97837056450758    2.94428080886718
C           0.46785970031248    6.99899816223726    0.94203765522020
C          -0.26000487775474    7.95246958491294    0.23846082616422
C          -0.07410183849700    9.31251591214009    0.49706930680658
C           0.81468006787604    9.64002997985401    1.53002507801205
N           1.51257022715801    8.74370688844659    2.19642475369899
C           1.36927922448985    7.46766037044041    1.90712327484030
C          -0.79995479160148   10.30305149948033   -0.26807350685888
C          -0.42344103688537   11.59119284986999   -0.37476798370253
C          -1.06672311712233   12.63259682823578   -1.12628977798524
C          -2.32661283407662   12.53050413257522   -1.76153363934613
C          -2.84805772446842   13.61583200016782   -2.54108699976224
N          -4.00288912615163   13.46749590210037   -3.23263076535741
C          -4.66069273224337   12.35571194581204   -3.09936566047908
C          -4.20040631372785   11.32184343463637   -2.25270268105392
N          -3.06207260387670   11.40301114948018   -1.62858173718327
C          -2.15415367556009   14.83137185523813   -2.64884588740179
C          -0.92808442886004   14.96437763606721   -1.97895468086314
C          -0.38223736129184   13.86810453234480   -1.24189345695158
N           0.82295572901755   14.00306429092363   -0.64012993864486
C           1.44212897876059   15.14178181857669   -0.74218742036869
C           0.86683564255258   16.24404506593790   -1.41695385945919
N          -0.28593551980180   16.15666794750270   -2.00870894294940
C          -2.68182322958502   15.92797375651700   -3.44627793765114
C          -3.99178998570563   16.39464348579694   -3.25201108874023
C          -4.50341992806679   17.46741513881003   -4.05521819928596
N          -5.78467422531792   17.88933812694871   -3.89396917153486
C          -6.50097114522659   17.30614312725147   -2.98214611499241
C          -5.97006574646971   16.29494578847561   -2.14023862695373
N          -4.75459619159053   15.85703523864329   -2.27019500711564
C          -3.69561829164295   18.08906115351524   -5.00146799156121
C          -2.38941350368066   17.64790905215212   -5.18408055950954
C          -1.88133209656184   16.54455305105990   -4.42183834147108
N          -0.64030933835537   16.06125609139726   -4.67013860219853
C           0.08306206708765   16.67739586244371   -5.55509806437640
C          -0.39200346295534   17.81536110607998   -6.25664188765989
N          -1.59662935234209   18.27078555587507   -6.09472398008872
H          -1.42604903478506   -2.28155536062454   -1.09427843081267
H          -1.84581041613297    2.36149715546957   -4.49493702181193
H          -1.71768076366547   -0.11171407783516   -5.10203392411519
H          -1.51780061339386   -2.03952290240351    3.46711710084030
H          -1.64421907416828    0.45515044235893    3.98272700810829
H           0.58601301573201    6.34469424119767   -3.69338810847541
H           0.64267112681886    3.84263570527206   -4.20264288708108
H           0.85730967942143    1.93233849848621    4.24397965309394
H           0.62692154784544    4.40254140020818    4.88854985202195
H          -0.96753454384963    7.64216748231479   -0.51568046883935
H           0.95497939517039   10.66529186540553    1.84318660927155
H           1.99982019786064    6.78300313327145    2.45422873617518
H          -1.67262089239530    9.95367862392559   -0.79994230649839
H           0.48752620574602   11.92201864220242    0.10541223952122
H          -5.57458016722985   12.25455508553076   -3.67006584411777
H          -4.77273344456476   10.41523095997188   -2.10481852851277
H           2.40817621254889   15.21594073974372   -0.26040132792157
H           1.35967401831088   17.20708292986370   -1.44373905671269
H          -7.52372710510553   17.64300843058698   -2.87384890157715
H          -6.56284774460388   15.86354908545369   -1.34410541005185
H          -4.07896875321945   18.90788157393359   -5.58839876464365
H           1.06745375422571   16.27185208835952   -5.74970475795047
H           0.23322644459364   18.32955710720975   -6.97487053867677
