72
 SCF done       -134.181857355168          0.000543662826
C          -0.73368405249082   -1.38179483057533    0.67952879895954
C           0.22828293287203   -0.91797768079567    1.57256326165908
C           0.62690229184012    0.46088114950883    1.58310013575843
N           1.54056081985113    0.89094859686302    2.47765745877202
C           2.05740431136086    0.02042461002580    3.29234403106372
C           1.68738561814792   -1.34757244618438    3.26438554597152
N           0.79272319671170   -1.79934138241845    2.43790592518498
C           0.05313425739297    1.36937608846872    0.66471728060919
C          -0.93275078627598    0.88519349171826   -0.22174781388128
C          -1.32254922009956   -0.49324982608277   -0.21357193084663
N          -2.26510144480878   -0.93877030225159   -1.08162375327452
C          -2.79179646650109   -0.07937254101720   -1.90186558604683
C          -2.41395438200617    1.28509248710543   -1.90723684532615
N          -1.51087305783085    1.74076318960264   -1.08903076906323
C           0.44679783193041    2.74230367768806    0.60800517453161
S          -0.33772769864539    3.89492502599318   -0.47028334169955
C           0.78217149408926    5.07377702079661    0.20183271114446
N           1.59041681986874    4.55027021582278    1.09744001060483
N           1.39820441966291    3.28501314108546    1.31044051108051
C           0.80967694196424    6.42772004568721   -0.18870524417593
S          -0.32133974706568    7.04661809718144   -1.33661745225532
C           0.34042193951521    8.65058715450142   -1.25957419860577
C           1.41743458176901    8.69458412675296   -0.35527917355112
C           1.68579527167699    7.43533299612228    0.25319036521170
C           2.73662420598363    7.31116685371920    1.17150903859132
C           3.50543492233275    8.40643476365389    1.49915599043122
C           4.60700975474720    8.26693825799152    2.44880668430273
C           4.64913785605000    7.37490697207027    3.43064450516428
C           3.23375339868352    9.67325637503821    0.89709821703260
C           4.05164880375338   10.87376350529969    1.26286008259911
C           2.21170069514782    9.80086929049154   -0.00720992727314
C          -0.17612937473608    9.71158203669710   -2.02743243500214
C          -1.23822620052653    9.61933620752128   -2.86938248164788
C          -1.70069140189332   10.72299180797351   -3.62663716342202
S          -3.09931810573045   10.62924986068083   -4.68501540383056
C          -2.76868903332265   12.32065503882279   -5.04707462076096
N          -1.74155256275502   12.77787669657616   -4.39059884706907
N          -1.15766893779152   11.91795188909433   -3.61356796146702
C          -3.57018304275129   13.07888863554655   -5.95771515851985
C          -4.79910773619317   12.56365249901615   -6.42230228923188
C          -5.64309205513079   13.33706104104490   -7.28426464548738
N          -6.82483958964573   12.82875126614775   -7.71511242628640
C          -7.15275106844636   11.63450954906712   -7.32171882649829
C          -6.32085438155871   10.86876150357944   -6.46927218401384
N          -5.18287295944818   11.32836657668466   -6.03835299643239
C          -5.26127500911699   14.61510942579179   -7.67857908502078
C          -4.03953059912555   15.12664518565519   -7.25160277463616
C          -3.17181793860877   14.35859575023049   -6.40478649089992
N          -1.96362644138962   14.84862943110639   -6.05743697865480
C          -1.65033517774814   16.04491973026552   -6.45562964241402
C          -2.53294693262440   16.83129355382248   -7.23862147394367
N          -3.68018160899726   16.37640876529059   -7.64346874761467
H          -1.01582699904851   -2.42175664443398    0.67891558026466
H           2.78113109014493    0.39312180070292    4.00439172602955
H           2.13014410797840   -2.06454520502092    3.94323252635224
H          -3.54075938459640   -0.45323998410535   -2.58697573865402
H          -2.86103958334078    1.99670529940372   -2.58746044026520
H           2.93400722699277    6.34004469508453    1.59397492911249
H           5.43140807073662    8.95589499057173    2.32612567448953
H           3.84252415795771    6.68671327988147    3.61756224446836
H           5.49293914357727    7.31349135959330    4.09657013742824
H           5.08075634175337   10.75480413244055    0.92375303768058
H           4.06613202193850   11.01465883861255    2.34244609234833
H           3.64317834546981   11.76847857988727    0.80005944116748
H           2.00852938457064   10.76032447885768   -0.45834351419782
H           0.31191785181659   10.67175314631518   -1.93906349504417
H          -1.76753727684033    8.68429546117119   -2.98799489785181
H          -8.09746481873854   11.24508933066575   -7.67673785087386
H          -6.59994318451842    9.87515225214996   -6.14647697063040
H          -5.90840423932902   15.20704957467388   -8.30470287422426
H          -0.67002587162516   16.40770419105487   -6.17795763211185
H          -2.26749173700389   17.83266584796831   -7.55131503530764
