116
 SCF done       -208.052389282290          0.000765319590
C           1.34949099157800   -1.15851685267770    2.97743156628154
C           0.17274192127168   -0.92892184296845    2.27090220396464
C          -0.11137632729217    0.36390653778645    1.71954046573761
N          -1.17417000942971    0.53251726408055    0.90495493732673
C          -1.99642451791368   -0.46275083819060    0.76065864679195
C          -1.79584835220087   -1.69765711162152    1.42871568672051
N          -0.72177247802413   -1.93765599110160    2.11623966697017
C           0.75287990774138    1.44577769691921    1.98006665869425
C           1.98011368904673    1.17988382680312    2.61867015267845
C           2.27327716367572   -0.12696984785004    3.12575613734516
N           3.44970036194667   -0.35510106095636    3.76035611153636
C           4.28189235552434    0.63700019750233    3.87222172591702
C           3.99929380284457    1.92385925698700    3.35159224702915
N           2.87542385791535    2.18131797286381    2.74778710112468
C           0.42288061641682    2.77810067061978    1.57938579891506
S           1.67792640585785    3.87644563308696    1.12473524668925
C           0.51578726738382    5.06834229029575    0.61208083384479
C          -0.77907571052267    4.63845220019636    0.85650984050951
C          -0.83041635862894    3.34270196961424    1.41943864902885
C          -2.10623070597324    2.78768770874370    1.90889005292290
O          -2.20062853701891    2.01057923754578    2.83967522649555
C          -3.27993661840164    3.34754031582613    1.20647180031678
C          -4.47177347101370    2.63229135516599    1.17552114636120
C          -5.58017557988690    3.14678738406755    0.52974288619808
C          -5.53611718675788    4.40031809351309   -0.07286418033101
C          -6.75370271401839    4.98254527716018   -0.72714814184537
C          -7.53502892186176    5.83460465541359    0.27608112405684
C          -4.35885465247439    5.13414149176562   -0.00222583080918
C          -3.22957170481842    4.61643404029276    0.61493075775717
C          -2.00397996242854    5.44360804334529    0.69322200828805
O          -2.02243113410984    6.65623462663894    0.68793771892335
C           0.87627650647360    6.26038530017287   -0.08193898260902
N           1.98105083023801    7.03623894112699    0.15479965726627
C           2.97976429995966    6.85791066176495    1.17977729415983
C           4.21493263078115    6.14058681473586    0.64131404967172
C           2.03588687629278    8.14533919992440   -0.72172327553910
O           2.90909783290540    8.98652507932047   -0.67732904694724
C           0.87606983244623    7.98228432934420   -1.56468866959343
C           0.18539591592392    6.82065825178959   -1.14761559168736
C          -0.95538960671898    6.64943587633934   -2.01885318538328
O          -1.81389918109668    5.79309803574925   -2.07854978644335
N          -0.89692974941555    7.75299410076877   -2.89501775510444
C          -1.89161867211171    7.89762778952511   -3.93046529779500
C          -1.36425035287709    7.46642225039759   -5.29653479751597
C           0.19204814813545    8.55522797230663   -2.63598902712689
C           0.61439732617760    9.76026328476514   -3.24657460832683
C           0.05686282415618   10.47611602796327   -4.25749639356164
C           0.60306673666240   11.69890745330368   -4.71593024643622
S           2.09177466460760   12.34566506148321   -4.07867795312572
C           1.98691916009718   13.72890827856985   -5.10856830365365
C           0.82109042108752   13.72869578261867   -5.85772401602124
C           0.04950628349938   12.55617724663170   -5.66929153972667
C          -1.16191852328767   12.29056757036266   -6.44529408909142
O          -1.87194192539045   11.30911109802482   -6.28529014852229
C          -1.44825867649432   13.29076768426153   -7.49792406547544
C          -2.45585530368995   13.02291892251792   -8.42115205864418
C          -2.76993049058081   13.93418580336723   -9.41015404405834
C          -2.10103619404231   15.15181421388673   -9.49326548156749
C          -2.41406520213474   16.13493915449297  -10.58195746979379
C          -1.44455130391217   15.95757221633311  -11.75275087588450
C          -1.10529158108107   15.42594564481857   -8.56557558022586
C          -0.76428663138182   14.51057137636765   -7.57844181313959
C           0.28967555687612   14.87499434414830   -6.60580458840639
O           0.60346715981802   16.03229740170564   -6.39460743607795
C           3.06991531160638   14.66232653263546   -5.17033606116309
C           3.38293644095065   15.34824553444095   -6.36094063225558
C           4.38250195481986   16.37647630594303   -6.35442529199240
N           4.59892232125167   17.11356198422151   -7.47299390797968
C           3.90766753122504   16.82693633220760   -8.53313836172560
C           3.02869273268469   15.71533255380360   -8.57413067946457
N           2.78082674040636   14.99977695110810   -7.51836942756412
C           5.12687742964533   16.63889144984867   -5.20813910556939
C           4.91097792632880   15.87930701006673   -4.06136364249469
C           3.88122505258845   14.88510431737825   -4.04011959947716
N           3.66589459683850   14.14677754500950   -2.93098751031759
C           4.42176302403608   14.36182255384609   -1.89461905728934
C           5.43561099424460   15.35252422406014   -1.91137984722373
N           5.67139883956381   16.08732427196439   -2.95705620458459
H           1.54096615634488   -2.12573267886970    3.41196828387132
H          -2.82206816631413   -0.31778916840649    0.07704178765611
H          -2.51071992611463   -2.50459421633266    1.33974208865873
H           5.21562539421426    0.43545981503406    4.37973215815685
H           4.70930559013979    2.73528263624932    3.43250327124271
H          -4.50698382170447    1.66696356775491    1.65882339256096
H          -6.49486200533461    2.57200778230167    0.49518688255075
H          -7.39621925155076    4.18221555846305   -1.09915234593186
H          -6.45409490740839    5.60560701128743   -1.57134438740598
H          -7.85385246958907    5.22837082219768    1.12107585718972
H          -8.41555491776787    6.26374628080096   -0.19583283453070
H          -6.91154703156817    6.64273702479587    0.65072464048896
H          -4.29330772647796    6.11738652878457   -0.44308881659028
H           2.54381417834939    6.30667950696170    2.01542690713650
H           3.26525313747000    7.85908270197724    1.51687861773814
H           3.95667234309213    5.15142584191670    0.27119025257627
H           4.95213732695153    6.03697350570381    1.43215689819212
H           4.64997534644119    6.72020727135139   -0.16885859171011
H          -2.25448633749446    8.92734554060403   -3.95441737726550
H          -2.71822567091883    7.24265180490290   -3.63889285976514
H          -0.47250766914091    8.02677253783940   -5.56627327695825
H          -2.12447622063683    7.63957160032434   -6.05294333146470
H          -1.11725286086192    6.40753887455480   -5.28107843971462
H           1.52030996383905   10.15061190272657   -2.79427106111137
H          -0.84392015885277   10.16958308773008   -4.76578729515836
H          -2.98542068613140   12.08503914607182   -8.34074251746896
H          -3.55099046007139   13.70623719688313  -10.12122105586633
H          -2.32694284596217   17.15198809715027  -10.19507432878566
H          -3.43629132885706   15.98691110643682  -10.93454482224941
H          -0.42058060586541   16.11750541067394  -11.42308542990375
H          -1.67033172232110   16.67016508609837  -12.54220640239794
H          -1.52081657696627   14.95171866487585  -12.15987629870690
H          -0.57424991262270   16.36691894103399   -8.59077360638648
H           4.07212739288444   17.44344894737594   -9.40676410557956
H           2.56013173275929   15.40073411433069   -9.49724178615051
H           5.86013312999008   17.42851597884741   -5.20744033198434
H           4.24234300430212   13.74795936169909   -1.02306941173091
H           6.05502467724277   15.52877787164313   -1.04220411313836
