88
 SCF done       -156.597567889616          0.000658154502
C          -4.77065201262338    3.95122841586464    3.16910198731245
C          -4.62626816054848    2.86030268626199    2.31949759264121
C          -3.53405324955369    2.80067470199004    1.39139522766240
N          -3.42711411776697    1.75210904409218    0.53834770055257
C          -4.31489403838663    0.80766645003453    0.62040646691338
C          -5.37460821097033    0.85048559028540    1.56314940849137
N          -5.53145256363191    1.84880981564968    2.37769895114563
C          -2.58953112642503    3.83981531526654    1.32850386705787
C          -2.74855977326536    4.93885172305802    2.19065910232719
C          -3.84650274112695    4.98854832918814    3.11369263066665
N          -3.99481586411879    6.05203572491150    3.94550809404223
C          -3.11513063444937    7.00370736007291    3.87293398988206
C          -2.01959853657578    6.94731145618315    2.97413138719112
N          -1.84175708248723    5.94733446188332    2.16355328510100
C          -1.46627236585308    3.76853619935259    0.39773613316260
C          -1.06710430758796    4.86658970220796   -0.35397236278685
C           0.00817641104336    4.75832850411212   -1.23952164822273
C           0.64330408354914    3.51081598192537   -1.31336948127880
N           0.28426924109284    2.47275912920111   -0.58712170643435
C          -0.73302716266024    2.58596346000030    0.24152816379394
C           0.41171593677397    5.90991640224815   -2.01614779055339
C           1.17759732071653    5.85405604853327   -3.12422602978874
C           1.61251837410915    6.90606186072085   -3.98248633094364
N           1.54545873077643    8.27405829416981   -3.82546629090771
C           1.14462544206100    9.03428291071286   -2.66663592753965
C           2.12157743616158    8.87050355679502   -1.50566576172727
C           2.07730909341534    8.95131501065523   -4.94366850531121
O           2.13284027011231   10.16464325718201   -5.02056878762222
C           2.48109222879760    7.90571863558724   -5.85019558929124
C           2.19146723858727    6.66758048160952   -5.22188719794189
C           2.57703667158037    5.60224926772996   -6.11669349098482
O           2.52473264756231    4.39363077297536   -6.02200017138459
N           3.07632128399798    6.27582630363474   -7.24988981769103
C           3.61578410351185    5.54578811883426   -8.36986022913109
C           5.14259942618455    5.51916854582727   -8.35106761208684
C           3.02899399552925    7.64507839124764   -7.10319982611793
C           3.46026818485981    8.55519274455624   -8.10118089416850
C           3.42557952482735    9.90063502966639   -7.92693853217175
C           3.84493228988946   10.84387980396159   -8.90364522514312
S           3.69621480131107   12.54140627259951   -8.57334370233282
C           4.34544487196761   12.95443952819211  -10.12334540679082
C           4.34555747253230   14.33566799195711  -10.54027345266277
O           4.54753175477306   14.74487800927545  -11.66047813723143
C           4.68250967845359   11.81287912533021  -10.84855324867299
C           4.38726476139948   10.63341190180718  -10.15879032497494
C           5.31247496945645   11.85954879242611  -12.16060919413361
C           6.41623660049796   12.69778287011276  -12.38216598756200
C           6.97168284739434   12.83080788483098  -13.69635006789031
N           7.98897505731911   13.70144216486742  -13.91999521895421
C           8.43080167692878   14.38476776799410  -12.90972122369694
C           7.93947648243651   14.18415462925494  -11.59306190724293
N           6.97106769583266   13.35870790150079  -11.33803629648599
C           6.46199407965473   12.08637930459259  -14.75494107694553
C           5.40967682447546   11.20529827293690  -14.53077162201836
C           4.82634930788347   11.08613434855745  -13.22474478558799
N           3.78197926565090   10.24487450330714  -13.01838777459614
C           3.34093800338209    9.56885933537497  -14.03652676957140
C           3.91988182871128    9.68306296503824  -15.32671807249959
N           4.92357136075504   10.47112828688334  -15.56458112427860
H          -5.59262300191056    3.99340317642834    3.86461685405995
H          -4.21252385829989   -0.01704650422446   -0.07205356683562
H          -6.09976293414271    0.04994243606145    1.62479975060224
H          -3.24652783274715    7.84432896303361    4.54128112861741
H          -1.28377439733126    7.73989548926688    2.93776415618722
H          -1.60920576220008    5.79718324291653   -0.27375201801255
H           1.48650016917939    3.34663683258647   -1.96968984388887
H          -0.97007184436414    1.70716008414693    0.82318102076640
H           0.01513831145352    6.84884453735366   -1.65926925814148
H           1.49272600091888    4.88647420986437   -3.49330272049510
H           0.12725687104261    8.76314424365553   -2.37229493100422
H           1.13862758955819   10.07864843289921   -2.99507103979359
H           2.18356663200444    7.83266546104685   -1.18659332974328
H           1.79751695834856    9.47752956424457   -0.66461452075305
H           3.11261290805321    9.19924242825883   -1.80934005472159
H           3.24421985010463    5.97682705115942   -9.30416296594625
H           3.23129650328165    4.52604487837077   -8.27564351863288
H           5.55178852897726    6.52634314068380   -8.39445496483581
H           5.51253612951385    4.95247035073948   -9.20127314776553
H           5.49218930796852    5.04380974250431   -7.43800018523667
H           3.82058042514161    8.14298456782699   -9.03175602418559
H           3.05387500235200   10.30370608181490   -6.99401404615264
H           4.09724711809397   15.03204653896381   -9.71507661524711
H           4.57784009646722    9.66094434877907  -10.57241626609635
H           9.22446477514386   15.09311338492968  -13.10672075250828
H           8.38013709307630   14.69596014421401  -10.74777781144846
H           6.86381126649534   12.20862021002724  -15.74750503866154
H           2.51205568036102    8.89762490472981  -13.85328016595157
H           3.54458508558529    9.10296071262907  -16.15944950873286
