78
 SCF done       -148.310790184757          0.000343092058
C          -1.13576374676410   -0.16392784116259   -2.72331561978281
O           0.09987026977162    0.31356603914511   -2.57763793874084
C           0.11847421964852    1.59087799203741   -3.01903377894593
C          -1.15174143154380    1.94317321135375   -3.46429805964124
C          -1.96804437564366    0.78264859770382   -3.26449564160930
C          -3.33532822690994    0.65401744521894   -3.56198321266308
N          -4.45006340141702    0.55484845323446   -3.80376867368894
C          -1.57892938143854    3.16498147007503   -3.99817265185783
N          -1.94535619945811    4.15928782359031   -4.43646021586085
C           1.33215260461779    2.33444260556383   -2.95922900570821
C           2.53329334135999    1.87966214023797   -2.47076152901308
C           3.50041468586893    2.92249651530170   -2.58853567086548
C           2.79363758910509    4.07269068616400   -3.17722793675652
C           1.49999298709154    3.71211296736046   -3.39150725431205
C           3.31178602358526    5.35555061668536   -3.40023591214893
N           3.68474187095695    6.42976209565410   -3.55761664117336
C           4.82590446170667    2.87584578189641   -2.21928356546745
C           5.81563599477844    3.87639708369935   -2.40920346002126
C           6.99736208359027    3.47008201055480   -1.81731762320649
C           6.77198061170180    2.15041399232290   -1.24173868361182
C           5.49203387763761    1.77535834008670   -1.49814217043722
C           4.93030208483198    0.55506169365364   -1.10627316675334
N           4.50795074018091   -0.45787224667795   -0.76692192561474
C           8.18656001199766    4.24394580724127   -1.82741994450180
N           9.27052075695762    4.13228774344019   -0.98824493701899
C           9.42178763307215    3.29021827301357    0.17621763315936
C           8.41418812251315    3.62850434255771    1.26975545695153
C          10.25494416576720    5.09468278153930   -1.27778808864429
O          11.29295849437647    5.19887289164341   -0.65277084187335
C           9.73109573967638    5.82430102010399   -2.40829696409519
C           8.46243925295060    5.28808014247956   -2.71626422306928
C           7.95832814966084    5.97678786030776   -3.88916287278861
O           6.95153640520984    5.84863198619543   -4.54627643657479
N           8.96049041224896    6.92793919988110   -4.18466693638921
C           8.82965447240283    7.80940610841612   -5.31967457789045
C           9.64130792026920    7.31859439884771   -6.51597307856115
C          10.02097348368821    6.84644433703794   -3.32112876397037
C          11.16021376316977    7.68406821046942   -3.38018420308360
C          12.19200644619827    7.55481476761220   -2.50350677772981
C          13.35766427294715    8.35955750336549   -2.48671033871879
S          14.57742347436375    8.03676819619256   -1.28149310494239
C          15.57670629493435    9.32467981486871   -1.86277385898858
C          14.96892617871613    9.96526454834614   -2.94836879829241
C          13.72640820029409    9.41976159726468   -3.29367185335684
C          15.56106584986013   11.05098053677831   -3.61816583152381
N          16.04234913893464   11.93653466880816   -4.16482285410107
C          16.83270207664859    9.65937092213144   -1.29637229933091
C          17.39165649583632    9.01029722998942   -0.24920272574688
C          18.65405445141180    9.35586918465765    0.30820429728550
O          19.38952229320438   10.38056863304191   -0.17856419978141
C          20.51343022771393   10.46317920577787    0.53680227182481
C          20.55119167740806    9.49889913817193    1.51184211162148
C          19.33054527672122    8.76423517632301    1.36965073999388
C          18.89804163314976    7.67378122252844    2.13438007794532
N          18.53452180931716    6.78070513790838    2.75446468118860
C          21.56821310390923    9.27122285384655    2.45469016328394
N          22.39383830436276    9.08015872908886    3.22448981217305
H          -1.32741020793293   -1.17429281072523   -2.41858482612909
H           2.72338137073789    0.89873641934377   -2.08241295753112
H           0.72265664026758    4.32920510322646   -3.80055584927398
H           5.66071047087518    4.79794780871280   -2.93371151645501
H           7.50089391574844    1.54400460163100   -0.74002913354190
H          10.43650206301884    3.48152067127403    0.53891940523179
H           9.35821991929833    2.23756687217389   -0.11059196773882
H           8.52229733666358    4.66876942161874    1.56755022369323
H           8.59288645192485    2.99914644314153    2.13707241199744
H           7.39272156125532    3.47034771981205    0.93049576457113
H           9.12745910770759    8.82165031810000   -5.03277858482595
H           7.76663065668786    7.81464870975765   -5.57605018810631
H          10.69955853864782    7.25108731565882   -6.27194958122816
H           9.51656889814860    8.00348605907173   -7.34986484286919
H           9.29357088636961    6.33479748882716   -6.82081643200821
H          11.18730036342142    8.44507310610807   -4.14588945790894
H          12.14215585755813    6.78171233873109   -1.74737246824186
H          13.12795464755285    9.79519327219692   -4.10399875177474
H          17.35463352455221   10.49114480481321   -1.75276128832369
H          16.88749433986842    8.17640526813623    0.22021270197231
H          21.21885098448096   11.23009742481395    0.28272494190739
