84
 SCF done       -143.375522545762          0.000319451768
C          -5.20489516208402    2.28575379798054    2.07556516271732
S          -4.18908756790093    0.89536961080612    2.02593584310069
C          -5.41326679638210   -0.07265094349386    1.22806817890892
C          -6.53860875173016    0.69599180841306    1.03203173454631
C          -6.41736394483169    2.02960171267936    1.51338567043201
C          -7.65872890070463    2.77562906299075    1.26732550203302
O          -7.90717032594350    3.91876148447192    1.55186235665903
C          -8.59726611175612    1.79812651754305    0.56753759377387
C          -7.85326409017999    0.47305462446455    0.43924569845425
O          -8.28409861133563   -0.54074006142889   -0.05585745423233
C          -5.23574434405742   -1.43687354164770    0.86236824705787
C          -4.11848744731598   -2.14666697293538    1.10154533687863
C          -3.90115097615658   -3.53533321893478    0.76740527273878
C          -4.80103016978946   -4.30833544371978    0.03244449202885
C          -4.51805476674083   -5.65015584219835   -0.22511754215815
C          -3.31607906053970   -6.15422298643877    0.29787543332845
N          -2.45229904027442   -5.43603620908708    0.98588370481366
C          -2.73001537431550   -4.16738142647389    1.21141231198040
C          -5.38551711824784   -6.53086114303018   -0.97162684841730
C          -6.39604015057119   -6.14337106662662   -1.77729106022833
C          -7.24357211837221   -7.01841050266500   -2.51387959045129
S          -7.97136607093459   -6.42819933485216   -3.97185379895884
C          -8.68950708011236   -7.95752358057967   -4.35204760915525
C          -8.41079997398411   -8.88909394323674   -3.34281412722165
C          -7.60325494566404   -8.35536574101815   -2.29188420595720
C          -7.33061628973083   -9.16064842178743   -1.17146667847444
C          -7.77345878316252  -10.46004229189477   -1.11000996859385
C          -7.47316962892134  -11.28040512088980    0.06299831086204
C          -7.39404765963613  -10.82150075079235    1.30477358653568
C          -8.52443413225233  -11.01153481360970   -2.19256424625789
C          -9.00635698910708  -12.42853188298644   -2.12859943959631
C          -8.84233042818314  -10.22778642317256   -3.26646147215657
C          -9.42798214791743   -8.18007690870483   -5.54062977208282
C          -9.70884353910321   -7.24602784986550   -6.47380600607013
C         -10.44958847975679   -7.47678557176354   -7.69010712139587
C         -10.86678202312259   -6.39532255861200   -8.46958478347595
C         -11.59100078284282   -6.61054384258314   -9.64245210692821
C         -11.85781149701835   -7.94432272719316   -9.98563829528810
N         -11.45652693901419   -8.97751243056872   -9.27239822146050
C         -10.77557860107447   -8.75720966892658   -8.16638671900381
C         -12.07835146793484   -5.55538341557489  -10.49898191389228
C         -11.97677000286840   -4.23262829743454  -10.27262969666444
C         -12.49392843589661   -3.23345900062082  -11.14272311152653
S         -13.33247956840689   -3.57572510705730  -12.63640374901570
C         -13.59452364160407   -1.88394194862232  -12.99714864900897
C         -13.05005062893155   -1.10546143359954  -11.99601278999536
C         -12.43652254479329   -1.86863564672824  -10.96455971651726
C         -11.87429174627555   -1.01056768437227   -9.92804761027768
O         -11.28587173658362   -1.34061297233278   -8.92567417418773
C         -12.17864344888348    0.41426303116081  -10.36616938989432
C         -12.92643010268389    0.32212001089079  -11.69047503872583
O         -13.32102744496962    1.27015342203198  -12.32638119226093
C         -14.29721190208808   -1.56720078426741  -14.20858731086828
C         -14.58319148645595   -0.33574428865457  -14.62944556965046
H          -4.84255012698634    3.19430021726031    2.51384758866424
H          -8.88573331452973    2.17672515146463   -0.41555999259465
H          -9.52181201625991    1.67317447328519    1.13531735141060
H          -6.09676085001027   -1.87307663879894    0.37452188135719
H          -3.29398085752608   -1.65707112933502    1.60777581833086
H          -5.72064170442167   -3.87386796675018   -0.32733400666243
H          -3.04205719148296   -7.18973029862662    0.13940411117728
H          -1.99264011896589   -3.62030069390498    1.78490543071400
H          -5.13836945249935   -7.58040200808135   -0.90006889693918
H          -6.56055311728045   -5.08855264177802   -1.95791317450288
H          -6.77861718530963   -8.75057381163232   -0.34210548250649
H          -7.31600213966596  -12.33424420442223   -0.12300848767871
H          -7.57809953155638   -9.78811229946885    1.54733814671519
H          -7.15974947513527  -11.46924762941479    2.13207511733192
H          -9.56246496605618  -12.60447594838779   -1.20895929163436
H          -8.16499234017429  -13.12131173460483   -2.15211614486608
H          -9.65283475878756  -12.65035930096506   -2.97408165469346
H          -9.44500316509650  -10.63520850991243   -4.06451659900072
H          -9.78389180251125   -9.19174871010225   -5.67302973938272
H          -9.37454933070728   -6.22857502209504   -6.30977667344920
H         -10.62494509113809   -5.39200628968902   -8.15053314209953
H         -12.41958472432417   -8.18163895869011  -10.88004428331780
H         -10.46119585031979   -9.64811656662359   -7.64084695639888
H         -12.58310981503574   -5.88677395471035  -11.39992435979489
H         -11.49094344994166   -3.83830395180277   -9.39069088637780
H         -11.26025625326764    0.99444006352119  -10.48014972629382
H         -12.78257286540852    0.93230397029080   -9.61778336135942
H         -14.59764539598448   -2.43030684998636  -14.79003270233282
H         -14.29636907143546    0.53787416587951  -14.07003497531200
H         -15.11562305898928   -0.17846420425780  -15.55142236545788
