102
 SCF done       -199.119321264618          0.000869577492
C           0.38215181598659   -0.63986924014280   -1.12334288789060
S           0.39082365005948    1.05281786006008   -0.88702449894746
C           2.12495657208706    1.06819788275101   -0.75252038800617
C           2.63994170326864   -0.19931331189494   -0.89023342021551
C           1.63498232662501   -1.17507421742280   -1.11213084238269
C           1.91579200139956   -2.62599700219996   -1.36372544034717
C           3.38609930387509   -2.98410149080535   -1.15784697012080
N           3.65078752738292   -3.32307146628092    0.27778760675723
O           4.70766508641287   -2.97830634398532    0.74307140393562
O           2.80191100198860   -3.95137306353797    0.85118331867335
C           4.33296879889874   -1.87586013944983   -1.61198426949485
N           4.18894684882670   -1.67653867355705   -3.08980437499230
O           4.54755901286477   -0.62030918397115   -3.53641886766482
O           3.75240131239973   -2.60029081446132   -3.73030222386927
C           4.09350971683550   -0.55924524014713   -0.87763504551772
C           2.80645765806948    2.33260212182433   -0.55854386692258
C           3.99270242805536    2.43381394296816    0.15741203745956
C           4.63173332373324    3.65810583480393    0.31115499491390
N           5.88594571855610    3.64032674637150    1.01474838444958
O           6.14172372540027    2.65689008076038    1.67831582730203
O           6.63019271345237    4.59483237982240    0.90085391811946
C           4.10135272311421    4.84188302725340   -0.23223837967477
C           2.89522811344484    4.72122349645782   -0.93618977471502
C           2.26701135933399    3.50998119147531   -1.09660869532630
C           4.71633054736014    6.13945663635669   -0.04657459235027
C           4.67350701117948    7.10022838437770   -0.99042560950433
C           5.23686701069236    8.41019778969692   -0.97395628678793
N           6.14113650368959    8.97482280014905   -0.11190297026435
C           6.78517805776628    8.38640077794875    1.03847596569148
C           5.94190768579370    8.54934870514209    2.30186144414348
C           6.46668271016937   10.30322691174688   -0.49048086394222
O           7.27359623429404   10.98106199603413    0.10352061572321
C           5.66339876953653   10.54561622347988   -1.66985513056029
C           4.94198575042955    9.36031935622904   -1.94628152381875
C           4.17520686665127    9.57394253117772   -3.14797467754833
O           3.39370494400271    8.86754396128255   -3.75191165619345
N           4.52435078929118   10.88131220931511   -3.55751362412659
C           3.83255389690903   11.47963088362982   -4.67484364416640
C           2.93199985940796   12.63535301505748   -4.25072950725128
C           5.40446612121956   11.47112400814515   -2.67407477775775
C           6.00290036516135   12.76141015353179   -2.72939349781207
C           6.20785721528263   13.53056038268354   -3.82427049511448
C           6.85992454515804   14.79414259991307   -3.79378629221537
C           7.18231161551675   15.64798458292388   -2.76424038014570
C           6.91985594490521   15.72549964333887   -1.32206385449109
O           6.33765729188116   14.97224381756914   -0.58173892245016
N           7.46984074093105   16.94152924326816   -0.92943775973815
C           7.42104939361520   17.42334034293109    0.42849886477491
C           8.03252155620207   17.66630560706007   -1.96358822250121
O           8.52749793899646   18.76202165999753   -1.82220603850103
C           7.85913769411995   16.83413509872784   -3.16570542686201
C           8.07901452789714   16.92148082211597   -4.52179670973168
S           7.40929051005431   15.49720461137765   -5.29998310113665
C           8.68988880291456   17.88674137800790   -5.38398617012640
S           8.07170931869431   18.00181320009928   -7.01431770307846
C           9.25562985883995   19.15981404718337   -7.42617400491935
C          10.08840397569451   19.44588103392153   -6.38625281945521
C           9.76911710165439   18.72774946450708   -5.20759963290328
C          10.57935156168012   18.83838161995991   -3.95984541861954
C          11.59510141828279   19.96896043447500   -4.01000778277254
N          10.95495053944293   21.29447368409387   -3.72884125025545
O          11.72311882991136   22.20175651350255   -3.51430752088131
O           9.76039841470057   21.37688863402734   -3.77818131082146
C          12.26124561418390   20.12840720879390   -5.37922251669568
N          13.04602600916231   18.89717716804766   -5.71779327545100
O          13.30993130913030   18.14030369557814   -4.81931975657635
O          13.38063429660551   18.77190075684724   -6.86614817899199
C          11.23564946938085   20.40693544356040   -6.47477535380047
H          -0.54738617945569   -1.15381306480406   -1.26462975498858
H           1.63503541601822   -2.87216808886047   -2.39153125497741
H           1.30557855321754   -3.24839308404998   -0.70384364003991
H           3.60329542196581   -3.90714494663331   -1.71132912084157
H           5.37410147489497   -2.18640329017576   -1.45464515011539
H           4.68054763928230    0.22902597820447   -1.35404371671907
H           4.45679191742423   -0.67446559921925    0.14766750373380
H           4.43863120525688    1.57381494403812    0.62939283147894
H           2.44193295020197    5.61159588888811   -1.34230588788887
H           1.34133866298773    3.45779491952480   -1.64986881473441
H           5.22822744209961    6.29960904286351    0.88730370178529
H           4.16006093142082    6.89778777247018   -1.92285009526344
H           7.72518379713195    8.93122128199622    1.16872120146992
H           7.01403343521339    7.33806182102798    0.83616350277154
H           5.83453427175794    9.60519862892654    2.53798480337025
H           6.43137214452106    8.05389609115373    3.13561886679421
H           4.94823127431157    8.12491620887605    2.17286053174869
H           3.22385864832357   10.67306112899979   -5.09650357588213
H           4.54654089786667   11.79864517376020   -5.43899938742493
H           2.20074721425777   12.28956359849767   -3.52419013716722
H           2.40368116658307   13.02291853875536   -5.11746592619313
H           3.50960937746030   13.44072223797540   -3.80361059496946
H           6.37589858368097   13.10057837228316   -1.77152334521406
H           5.93717997762112   13.18519459925586   -4.81116971502367
H           6.66226103681761   16.85212054283909    0.96021185584414
H           7.17133768942891   18.48379477189221    0.42496348025690
H           8.38780249293071   17.28690357727429    0.91654408339034
H           9.28177514861711   19.57023449724311   -8.41587721869380
H          11.10665272106408   17.89755355844327   -3.77743555176592
H           9.91067360786064   19.00773695273606   -3.10971251752445
H          12.36079323396743   19.82740488687314   -3.24019247027349
H          12.99658816350879   20.94352135667471   -5.34055920609314
H          11.71661018773530   20.32359498009941   -7.45194095537715
H          10.86852643342145   21.43272330766787   -6.37724050082948
