74
 SCF done       -150.279961505135          0.000349936571
C          -3.31827334545793    0.99312302711651    3.70300958707086
S          -4.20394998308937   -0.34959026126849    4.22296546246187
C          -3.42084546210555   -1.42412444468508    3.09697935334600
C          -2.47085672883912   -0.71103131673045    2.33638829635708
C          -2.42118889861861    0.67942067239889    2.69636489835260
C          -1.49877858026960    1.56240026298868    2.05634534234649
C          -1.45379152473281    2.99525461220940    2.43700284186515
O          -2.33537786637602    3.52255480466341    3.08081440755560
C          -0.24522561671445    3.78056273455837    1.98776097007714
C          -0.67511567042803    1.03459400342217    1.08713165387800
C          -0.72949456469095   -0.32124173524559    0.73412581052322
C          -1.60082853936018   -1.18690771577439    1.34111925198395
C          -3.81141682919332   -2.77428224148562    3.15305347405376
C          -3.44072586119582   -3.82615808358891    2.36441800869535
C          -3.87001118330028   -5.13594491560958    2.64458858834783
C          -3.56288926956621   -6.32828301536744    2.01672799605153
C          -4.17162977253932   -7.38012745581080    2.76681341918836
C          -4.88939087682869   -6.76311628042592    3.86869601560501
O          -5.54794422407628   -7.20431610483069    4.76392363898950
O          -4.66497579447346   -5.39409251154303    3.72858418415136
C          -3.79951638631252   -8.56552146378922    2.18271973952985
O          -3.00866197891784   -8.31953605383366    1.10038422892262
C          -2.82848770848569   -6.93813046516306    0.93505304575301
O          -2.17338261866560   -6.49307700295124    0.03373620877563
C          -4.06559923276292   -9.90018358054327    2.58197919037698
O          -4.84177728021117  -10.11369162511361    3.66155686893620
C          -4.89070606647394  -11.42984100268600    3.87688104374320
C          -4.15593758669924  -12.10959510077992    2.94925397471717
C          -3.62139189409663  -11.12351940996689    2.09159589835773
S          -2.57356214857545  -11.42837353830615    0.71241842170635
C          -3.48119957062168  -10.68363901977603   -0.54735602044351
C          -3.22117699552605  -10.62495886371906   -1.88840946867926
C          -4.34862436942665   -9.97373230447016   -2.49455104553088
C          -5.26485903608026   -9.61700036499787   -1.45040302243468
O          -6.31468603245814   -9.03655809778031   -1.42765859728494
O          -4.67131766799895  -10.10408970239574   -0.26352076321431
C          -4.16425455868364  -10.02160885407336   -3.86015658876544
O          -2.95774503095397  -10.59707087442970   -4.13027863897601
C          -2.32700941078522  -11.01339099102741   -2.95542167271429
O          -1.26297277676842  -11.56309294133512   -2.98494485341437
C          -4.98717488295137   -9.58328070653922   -4.91055373094961
S          -6.22074432011232   -8.41585440576741   -4.57866373248105
C          -6.59245392700745   -8.22137104468396   -6.24928925298887
C          -5.80516687210450   -9.06684788889663   -7.04950348718527
C          -4.91939909926666   -9.88360140583282   -6.28294680836377
C          -4.15452905606075  -10.88766442941289   -6.92329832849654
C          -3.52711432055826  -12.02027601782402   -6.17040355634325
O          -4.19979202839197  -12.68222189133660   -5.41554372738863
C          -2.09065886416509  -12.33165705596933   -6.48424824640843
C          -4.18635990092810  -10.95242063619774   -8.29738844919536
C          -4.99159849404383  -10.08854597546147   -9.05806554820395
C          -5.81697756561035   -9.18203127098044   -8.45375825766732
C          -7.59190455748618   -7.30031530810290   -6.69911596515454
C          -8.35360663018323   -6.55735720659211   -5.89405520732404
H          -3.48181148782959    1.95745560427958    4.14066862249828
H           0.67409747535573    3.26004205601689    2.24338401960845
H          -0.26170183385912    4.75454765195027    2.47034222167482
H          -0.27955748457089    3.92741113103385    0.90995869382876
H           0.02852762231447    1.66530162287904    0.56791511516515
H          -0.06377407029853   -0.68623717455064   -0.03313040786632
H          -1.60877175296556   -2.22407020790899    1.05485549750145
H          -4.50599769589002   -3.00836350371284    3.95176126015580
H          -2.79827992685269   -3.73260598916350    1.50566181933586
H          -5.47886479722661  -11.76818811918714    4.70711954810998
H          -4.01017155455800  -13.16616267924348    2.86827229380450
H          -1.99238226786291  -13.38507987578890   -6.73970904405219
H          -1.50716609030647  -12.16650101484754   -5.57892915466961
H          -1.69977903525712  -11.70648045751011   -7.28033820794932
H          -3.62088651232076  -11.71863162961348   -8.80654420215979
H          -4.98323748332130  -10.18019554998886  -10.13359700122193
H          -6.47862753387620   -8.56525743145045   -9.04105726518648
H          -7.71614337522379   -7.23297074760042   -7.77128808270348
H          -8.25567186986513   -6.61012100908275   -4.82257046606577
H          -9.09528086365683   -5.88406021061548   -6.28480211112854
