88
 SCF done       -179.827191180250          0.000690335342
C          -0.75061683578195    0.07118185350723   -2.18441263173905
S          -0.24801782387897   -1.45209203594084   -2.80066025607953
C          -0.40201821482872   -2.20525369757735   -1.24352847490216
C          -0.81874953185754   -1.26918231448702   -0.29258793869069
C          -1.03242353137823    0.01890533396356   -0.86351497514001
C          -1.01780060799520   -1.39971859647937    1.13826971492648
O          -1.68892034389280   -0.64254020254484    1.79906430262458
C          -0.24705103057925   -2.51949995599533    1.90183832715231
F           0.95643766940224   -2.78254546293318    1.36848145047648
F          -0.04004307765925   -2.15774644472263    3.16669787350023
F          -0.93283671486613   -3.67551302243016    1.93176643776603
C          -0.20627754542120   -3.60792472166583   -1.12183319700927
C           0.27700108778644   -4.39284994350271   -2.11233131769869
C           0.45695508825399   -5.79428569351224   -1.98893427771170
S           0.10010596866766   -6.70023747677201   -0.53961843931526
C           0.94253585417418   -6.65244083937319   -2.95120518779135
C           1.46896665984120   -6.51835893557377   -4.31494408488661
O           1.56895736956974   -5.54662318096574   -5.02159055471773
N           1.87088288696873   -7.80476246879420   -4.65885134459703
C           2.45555409181697   -8.13692120323815   -5.94071201920778
C           1.38778126384424   -8.57867679009460   -6.93520178774174
C           1.65690178953889   -8.74730092360512   -3.66371159947875
O           1.98889634327105   -9.90549812855845   -3.74658817744196
C           1.01339389290983   -8.00796687219864   -2.55940335276169
C           0.57214620463435   -8.22324441025052   -1.26871704004717
C           0.47249947588207   -9.37204774218637   -0.42312371542931
N           0.18358467373847  -10.66312036870682   -0.77946517174487
C          -0.24869575985163  -11.15363474810265   -2.06677518698227
C          -1.56576985218670  -10.52187783411132   -2.50709922746839
C           0.17174730489896  -11.51606632892958    0.34651790407183
O          -0.08936986987936  -12.70076607902544    0.28210086665538
C           0.50428288729023  -10.65830498712586    1.45853317253485
C           0.64991036606698   -9.34108930291807    0.95365773334834
C           1.01390646858825   -8.47328764698852    2.05276689659360
O           1.23237756543377   -7.28185858946511    2.10902780568780
N           1.07754166387469   -9.33665871364395    3.16205091640293
C           1.34941650035869   -8.83024563400779    4.48587649097890
C           0.07100102569420   -8.66922846492328    5.30428600700027
C           0.76776434979045  -10.63395012435377    2.82632512649588
C           0.76060771173216  -11.70699757461555    3.75405298746757
C           0.41112374823131  -12.96964307407149    3.40600492760181
C           0.41722939337315  -14.03404689467614    4.34619815207837
S          -0.08468537780184  -15.66555392824197    3.91993939163985
C           0.27780759176526  -16.07155972325889    5.59114645821758
N           0.70720522360876  -15.04455853535423    6.27325502621768
N           0.78097813279835  -13.93732165150331    5.59683423415016
C           0.10734048039199  -17.38710586016305    6.10997024471150
C           0.44321144668656  -17.70152622886562    7.37851839471099
C           0.29490570585584  -18.99173066960653    7.96835481011889
S           0.88931101797282  -19.26300195669056    9.58669201861707
C           0.38684248567030  -20.90970270536735    9.57316469082991
C          -0.23211123711566  -21.23118155592068    8.35501478416953
C          -0.27056251159237  -20.13265048183553    7.46278271769200
C          -0.76905369871855  -22.54241712545634    8.06739516427009
O          -0.72953668376045  -23.52581308437162    8.76856192250570
C          -1.48371751942603  -22.66939908022822    6.68680887836854
F          -0.65115899571118  -22.43190871221658    5.65728435987149
F          -1.98258991844239  -23.88901433484387    6.51283335219908
F          -2.50546278886240  -21.80300901534511    6.56243354333475
C           0.60263094918639  -21.77007295584090   10.69901421453364
C           1.21501992967904  -21.38959243713852   11.82110828279243
H          -0.80785213740381    0.91476703536592   -2.84292828801545
H          -1.36113716419979    0.85368151907140   -0.27199896635963
H          -0.47578064173711   -4.08184352542781   -0.19081802037882
H           0.56156216432837   -3.97443272876808   -3.06999828610009
H           3.17726974497065   -8.94045499549992   -5.77532938710429
H           2.96885977919411   -7.24357341823665   -6.30358584087750
H           0.87289595150644   -9.46292865611163   -6.56643503171821
H           1.85014322363098   -8.81634401111543   -7.88879667091726
H           0.66243157123141   -7.78257776781594   -7.08660055261141
H          -0.37900827926016  -12.23145639888618   -1.93524059996919
H           0.53391116646484  -10.98406752139795   -2.80802749583788
H          -2.33680412446339  -10.69053083269884   -1.75802449613415
H          -1.88679085647879  -10.97218403706340   -3.44204331234122
H          -1.45789507517824   -9.45011901995498   -2.65989375323237
H           1.81939653389681   -7.85320378541096    4.34329956158220
H           2.05555016593891   -9.49308407890720    4.99290673395617
H          -0.60350493944592   -7.97686491813967    4.80648094936512
H           0.31197028301376   -8.27280113395874    6.28649618431154
H          -0.43628302600214   -9.62361489642517    5.42657469004968
H           1.04568364641935  -11.51423715060637    4.77777542686926
H           0.11464712897355  -13.20459911165807    2.39316468508367
H          -0.29976923527962  -18.12215653064231    5.43254917177573
H           0.86309742719926  -16.92493975721774    8.00231231253768
H          -0.69951619838352  -20.16765201603840    6.47967593844439
H           0.23336961780242  -22.77924274834141   10.58638183337493
H           1.59417655901103  -20.38813365413915   11.95040900653617
H           1.35431391646408  -22.07186557600623   12.64030458403691
