69
 SCF done       -130.957237189341          0.000596390344
C          -1.40823573242412  -13.23851034030202   -0.69747113856225
S          -2.79367841582696  -12.43059331887430   -0.12224630660054
C          -2.58075085012409  -11.10649413923666   -1.20828130076855
C          -1.43613043640763  -11.28406800314020   -1.97976228078639
C          -0.76922062788528  -12.52880805185139   -1.69011203206788
C           0.39322402012002  -12.89089680972245   -2.40706118223276
C           0.88614674777610  -12.04277092307460   -3.36254254990637
C           2.03223170938871  -12.38980864879983   -4.11373075117401
N           2.95865355384491  -12.67576022229083   -4.72470641702801
C           0.25815016898870  -10.77493959737066   -3.60624350306250
C           0.79867823714722   -9.89761319644330   -4.56900184735690
N           1.19740327234629   -9.16323758968928   -5.35481292786445
C          -0.86828401960419  -10.40142634429074   -2.91930619065057
C          -3.54052576347216  -10.02727672780205   -1.26015695190607
C          -3.85485908272909   -9.39104612308632   -2.46185767746427
C          -4.77861814947605   -8.35277674630344   -2.46532917386555
C          -5.38117739431304   -8.01208747379940   -1.25331831314977
N          -5.10696284205145   -8.62434377914296   -0.11665221197177
C          -4.21828567633263   -9.59463325330700   -0.11316644476105
C          -5.11906352461423   -7.68542542204647   -3.72544623360802
C          -4.12591417449040   -7.24354338336776   -4.59365635859938
C          -4.48659565000466   -6.66396726383964   -5.80790772380116
C          -5.85729896955779   -6.52469052339380   -6.06658780525945
N          -6.79823748272650   -6.91455664687188   -5.23671626763690
C          -6.44801766705670   -7.48345721201348   -4.09965535009529
C          -3.52237009523873   -6.14255358481985   -6.75760868865897
S          -3.85686824431402   -4.59148570771503   -7.43908538798132
C          -2.39935526436339   -4.58021433109743   -8.37627942855398
C          -1.70238510575280   -5.77472791407966   -8.20297795702807
C          -2.33650273622423   -6.66279536728375   -7.26210954749550
C          -1.74238244093834   -7.93861684486784   -7.02670997011682
C          -2.30457487254252   -8.91351479899378   -6.18024595847737
N          -2.69134673325323   -9.76881965872226   -5.51861789218801
C          -0.57909092565083   -8.29142738787247   -7.68093374023401
C           0.00722409604242   -7.44280849540913   -8.62290179391937
C          -0.54918983422455   -6.21410744713949   -8.91127356901257
C          -0.01253760175899   -5.49108679101732   -9.99858797262790
N           0.42521412431012   -4.98141110986666  -10.92842205931086
C          -2.02966155088978   -3.39747678022386   -9.08583396029101
S          -0.44641513758811   -2.71543596932965   -8.94215826406301
C          -0.84591616602603   -1.32600703460336   -9.88107422387565
C          -2.17105551410730   -1.38874297177854  -10.31605095892491
C          -2.85470496487463   -2.55919431821303   -9.83864900221099
C          -4.19710150552440   -2.78547965071662  -10.19535900423970
C          -4.84821345519493   -1.88273883159959  -10.99773633779905
C          -6.20055650278143   -2.09476142083909  -11.35031930113689
N          -7.29748872904655   -2.28238764845516  -11.62300421901682
C          -4.15996308041847   -0.73401846042690  -11.50409555132542
C          -4.84277210861291    0.15935492724705  -12.36116888407720
N          -5.38159104277827    0.90006846723370  -13.04964585308766
C          -2.84673212997581   -0.50280938912324  -11.17815829763541
C           0.17125839937538   -0.32899494224656  -10.07853904310643
C          -0.02729148542331    0.97101769628133  -10.28928061304009
H          -1.13402212783122  -14.19101611510429   -0.29029699661577
H           0.88157378386011  -13.83139451728071   -2.20083334839673
H          -1.30261563925999   -9.43012923151650   -3.09253901555396
H          -3.43749962952682   -9.73367929498021   -3.39712784932993
H          -6.10868099040288   -7.21358045934273   -1.19706660844030
H          -4.02497779226950  -10.05698918201713    0.84663276749893
H          -3.08641120756221   -7.31016220444829   -4.30670557801414
H          -6.19832353534869   -6.07753196624166   -6.99185670771586
H          -7.25924699318827   -7.80025200201115   -3.45859046682579
H          -0.12904220082818   -9.25125456656294   -7.48233123802034
H           0.88633635934472   -7.76888045987897   -9.15667352729131
H          -4.71304330064913   -3.66892825574422   -9.85053810737819
H          -2.33023611912657    0.34103276093197  -11.60622791344747
H           1.18397623170003   -0.70393325371281   -9.99749978750978
H          -1.00594013284284    1.41709460805170  -10.30748503899527
H           0.80463265115162    1.63935164555196  -10.42410416428763
