64
 SCF done       -147.556081999116          0.000551663708
C           1.79298781027626   -6.87283031567557   -0.20212830560913
S           0.58145000302762   -6.08916728807052   -1.09463067120695
C          -0.11837046698162   -5.36421695730783    0.32521164252809
C           0.53477923027674   -5.83329208752511    1.47378939400721
C           1.67416734018486   -6.65150878464965    1.15706837658727
C           2.56234527218041   -7.06596027269853    2.17072766429847
C           2.32746106782859   -6.67942108113239    3.46577054960736
C           3.27040566829180   -6.93759471523083    4.48715572113376
N           4.05114163389230   -7.10534088116117    5.30827033356014
C           1.11866835601631   -5.99147288859457    3.80002101505714
C           0.89729960366486   -5.61787468693021    5.14467933464349
N           0.75211990641199   -5.24517666346013    6.21855673934484
C           0.21390441153161   -5.63050376462417    2.82892100512718
C          -1.14477734542018   -4.38753034906848    0.12467703777968
C          -1.57772387310722   -3.35635540178932    0.97829890784552
N          -2.62820257585697   -2.53934882949015    0.71394446238759
C          -3.28407164425743   -2.56099755565577   -0.39483446285094
C          -2.88925705100576   -3.46031888067175   -1.41634025620315
C          -1.81950541342406   -4.37838701241980   -1.13131823787954
N          -1.64140834532434   -5.11569721965326   -2.21095225137682
O          -2.53229428453806   -4.68358975586393   -3.10044381444129
N          -3.28728316607442   -3.70128639614124   -2.64926502641867
C          -0.90959941313830   -2.96203523129244    2.19467070147052
O           0.41118796200500   -3.14002153333690    2.32756507368512
C           0.80965467161328   -2.55619814736690    3.48663219296004
C          -0.27387868844246   -1.97595395076330    4.11018845633159
C          -1.39236652467832   -2.23148128696412    3.28435063101064
C          -2.78398072173823   -1.91981762669013    3.57561451125254
O          -3.74916961466017   -2.54614241672064    3.23700260297948
C          -2.94878999858856   -0.65819292038554    4.47900791490316
F          -2.13579637958809    0.33851127156930    4.09871231897775
F          -4.19274268001545   -0.19171384133096    4.45567662993524
F          -2.64674264703664   -0.93654515422319    5.75779625886534
C           2.15958405697432   -2.70378559594030    3.94224986214680
C           3.24057421791587   -3.23720533350319    3.22459160579203
N           4.38057664920394   -3.68152538001298    3.83179793195525
C           4.62165072300694   -3.53583865862858    5.08945460177609
C           3.69147782422554   -2.84123037023147    5.89965631220378
C           2.43936017002826   -2.43840856082200    5.31175463943589
N           1.73429897995868   -1.86230598045063    6.26736207135857
O           2.49509458609392   -1.89781886214493    7.35590083537198
N           3.66459538316610   -2.47813590219943    7.16585026447186
C           3.31344144369524   -3.50265297356598    1.81468249702480
S           4.48986526273593   -4.70491398050026    1.39579191539809
C           4.02788952283929   -4.69729982697243   -0.23823461598664
C           3.02970599939771   -3.77678252658972   -0.49930784598735
C           2.65502652972538   -3.03552822080568    0.67648141031591
C           1.74510153557244   -1.96839821962283    0.54192676063968
C           1.05649621705685   -1.81562130336731   -0.63713818605628
C           0.03358751079175   -0.84591140104017   -0.74617897022795
N          -0.83286724236734   -0.10004748336712   -0.81939793030670
C           1.32428216078461   -2.65854210133844   -1.76329818357318
C           0.50640979344152   -2.53504850912780   -2.90999403306591
N          -0.19340618256072   -2.46945617820016   -3.81468143784214
C           2.34291397847882   -3.57583019393598   -1.71474828085474
H           2.53539406011136   -7.46755399203751   -0.69598280980603
H           3.43261537061015   -7.65237359743462    1.91949035441204
H          -0.73109646636067   -5.19408636522300    3.11523631448346
H          -4.10976623217001   -1.87752430344137   -0.51065818833911
H          -0.25201281992105   -1.47319449786101    5.05495594561585
H           5.52637734034818   -3.96661292807088    5.48914494762847
H           4.50099067444047   -5.34936346004494   -0.94511110425082
H           1.58650417644526   -1.26956458840639    1.34862304135915
H           2.59894267299332   -4.16099607977914   -2.58461617539060
