100
 SCF done       -184.403322080393          0.000591051057
C          -2.82519634905780    1.09189670908715   -0.66979013410407
S          -3.82081422286508   -0.21244055089441   -1.10964337532701
C          -3.12232874759739   -1.24993406095339    0.08594742974208
C          -2.08405333384327   -0.60382825535864    0.76090554748091
C          -1.93392946018405    0.76191980819102    0.33262505230110
C          -0.94446516465566    1.57992856202667    0.91718572203171
C          -0.10047206294584    1.04746400057966    1.85759245308867
C           0.89076303713351    1.85411582556669    2.46359264839822
N           1.68313909690167    2.52531001591280    2.94748223963815
C          -0.18930894505575   -0.33759049557251    2.21527872245465
C           0.74415212507553   -0.87387091930896    3.13124811173048
N           1.48664154171329   -1.32363246351110    3.87948100442080
C          -1.15724377257263   -1.14705332701767    1.67043482489680
C          -3.62236631598243   -2.58155266910033    0.20344698689640
N          -3.80596543194899   -3.28332124395036    1.37074832614695
C          -3.90251807570701   -2.74018007465981    2.70647844107424
C          -5.11384630199817   -1.82229376167466    2.84815761915291
C          -4.30889095174047   -4.58576936076275    1.10938801387014
O          -4.59440178435873   -5.36825249182404    1.98769449873088
C          -4.38548691803202   -4.66330875380737   -0.33016832245265
C          -3.99610087004520   -3.40106785218661   -0.84895055350406
C          -4.06518516480892   -3.45738697515869   -2.29096864292796
O          -3.84164621369017   -2.62510848675048   -3.14700320184793
N          -4.48823078801578   -4.76829974312473   -2.55796798684117
C          -4.74893155838401   -5.19952824514959   -3.90949195714457
C          -6.23999200043713   -5.17041699420028   -4.23834894768140
C          -4.68473772261264   -5.50254645975808   -1.40155656482439
C          -5.09435058219462   -6.85574589159762   -1.40775132581315
C          -5.24857565030227   -7.58902847395188   -0.26763969383716
C          -5.65572734408524   -8.93712203676246   -0.14370565750465
N          -6.09205271018013   -9.81357561883401   -1.11938729542452
C          -6.25720583042453   -9.58235422338022   -2.52775748989085
C          -6.42077447292592  -11.07900618489328   -0.58722162148003
O          -6.80536677757224  -12.00513979867030   -1.27161943137785
C          -6.17686430409433  -10.94028793761545    0.82865728370236
C          -5.69597349954919   -9.63348356878616    1.06638031004048
C          -5.39295891014193   -9.52201922007340    2.47859935456439
O          -4.98847156009868   -8.61965890266152    3.17085109974205
N          -5.69470288135659  -10.81283481378387    2.99711357466490
C          -5.64994623534127  -11.05722273801934    4.41181817731803
C          -6.16409047970626  -11.64572689139131    2.03070531260344
C          -6.60284132579036  -13.00677451979304    2.17567111859220
C          -5.90438592862842  -14.00782028666801    2.87773447976024
C          -6.34958953911795  -15.36644281027331    2.82806901233427
N          -5.69509234572575  -16.31158222127111    3.52520466842579
C          -4.63295372496078  -15.97773892239246    4.20480086388060
C          -4.14949442771179  -14.65541539883760    4.18726442814818
N          -4.77061135529560  -13.70384818893667    3.54641775234619
C          -7.43991713682057  -15.77195629941895    2.01520351884178
C          -8.18073445072437  -14.74796503992886    1.37373792302441
C          -7.77147198502298  -13.38319186484912    1.47229496475764
N          -8.53740805521856  -12.40744274313700    0.94230101619138
C          -9.59313990706464  -12.74877454558242    0.26366267053491
C          -9.98545795467656  -14.09850179110650    0.14027357526865
N          -9.31708930133829  -15.05700706116787    0.71603362207158
C          -7.76813027068275  -17.15581149828751    1.93118000669567
S          -7.40171442567623  -18.17729216305285    3.27983192642472
C          -8.21930257048193  -19.53535332457149    2.59969816796132
C          -8.68868166613944  -19.23882726401074    1.31313683238163
C          -8.41293753740627  -17.88689946586161    0.91963914193745
C          -8.69848560519212  -17.48462275769764   -0.39598050379956
C          -9.33856775121488  -18.34963843144898   -1.25225588972646
C          -9.64155272173005  -17.94099316180483   -2.57057340933220
N          -9.88711893977841  -17.59488127927561   -3.63536805104258
C          -9.69948783246138  -19.66522027821378   -0.82690720413038
C         -10.38342265187460  -20.52524309514212   -1.71546667600955
N         -10.94083997764142  -21.23988625743019   -2.41698747524070
C          -9.35567095186423  -20.10488112245205    0.42870619860207
C          -8.33649891683075  -20.77939690650259    3.29621177223449
C          -7.82809711504039  -21.01932474366104    4.50650908345277
H          -2.92335563270028    2.03886387443401   -1.16239634886272
H          -0.84981851552675    2.61174389196579    0.61459781265528
H          -1.17158248900785   -2.20003519553942    1.90785022529461
H          -2.99397146171816   -2.19953539229215    2.97545950454775
H          -4.00966852306894   -3.60593850015576    3.36615962588949
H          -5.02298163960572   -0.95753231188033    2.19328480142632
H          -5.19044198292262   -1.47426715006283    3.87426444392384
H          -6.02458667419321   -2.35948465026757    2.59410251337715
H          -4.33201574036161   -6.19851112392111   -4.06618850228342
H          -4.21950497895380   -4.49452216341957   -4.55672168279645
H          -6.80205844460055   -5.81820893689430   -3.56908076182743
H          -6.39934695137462   -5.49906623110392   -5.26158568990884
H          -6.62039614177374   -4.15718297667452   -4.13556736850841
H          -5.26717641295362   -7.29663866363815   -2.37487122153821
H          -5.03612376820527   -7.11695765574092    0.68474784766233
H          -5.29864644064863   -9.39767699727270   -3.01754810734470
H          -6.94385570957970   -8.75495052555964   -2.71543591721514
H          -6.68537575552099  -10.49896389093865   -2.93865452018120
H          -5.40949150766070  -10.10639616615283    4.88795678110590
H          -4.88374234591766  -11.79454297062524    4.65140350534092
H          -6.61715415561620  -11.41560504028452    4.76869012238059
H          -4.14199559004826  -16.76136552738151    4.76406341456251
H          -3.24172869332135  -14.37856338739255    4.70592521252673
H         -10.18732444309958  -11.94712993152711   -0.15210179905502
H         -10.88418576753471  -14.38484499675473   -0.38854444180759
H          -8.40759148741982  -16.50911624752817   -0.74715017067371
H          -9.59349212220944  -21.11529342471015    0.72434485699933
H          -8.88278562405499  -21.55833640723525    2.78155947217566
H          -7.27567395376231  -20.26592559963919    5.04292778826572
H          -7.94774308085515  -21.97293769527342    4.98829451659024
