74
 SCF done       -130.370374477506          0.000443187391
C          -5.41187395564700   -1.10316414031375    3.60269438797192
S          -3.87129145164530   -1.17675937011536    2.87175319952512
C          -4.34524718853955   -2.44339043361897    1.80548827517178
C          -5.66198755206451   -2.82502879521273    2.04851797982207
C          -6.28661192312545   -2.02440316810411    3.06962186086436
C          -7.65523243736406   -2.21456109521193    3.37288135286879
C          -8.36078737114802   -3.17990796976749    2.70715793247779
C          -9.74787727970621   -3.36274474851817    2.90292091667711
N         -10.87591500052370   -3.53262320084818    3.01784630305470
C          -7.70838744979567   -4.04526025282027    1.76351131396667
C          -8.46352726615233   -5.03731819147703    1.10239175400827
N          -9.07300538731322   -5.81672747966093    0.52150244660051
C          -6.38486937722678   -3.87935456841004    1.45428534905200
C          -3.50262116703180   -2.96528755824175    0.75201898020912
C          -4.08814207135178   -3.28929250805734   -0.46635292889190
C          -3.36209031592050   -3.95691123733999   -1.45619305122150
C          -2.00435783090293   -4.17704425758167   -1.18445679168636
N          -1.41752096470301   -3.77921373236233   -0.07255723848267
C          -2.12936580066805   -3.20655378893472    0.87716381768075
C          -4.08565653860601   -4.46040677759789   -2.59719986302181
S          -5.76769015445258   -4.76250720677367   -2.35177605101436
C          -5.99641683902222   -5.43425882662584   -3.92919178966464
C          -4.79644161026172   -5.40045100289963   -4.64531060002925
C          -3.71076212583216   -4.84404650356181   -3.88755263275767
C          -2.45576329055224   -4.69182250873872   -4.50610166025110
C          -2.24998006651244   -5.10725144230717   -5.79888454167794
C          -0.94290212221720   -4.92320247835195   -6.42738836934321
C           0.21740255163923   -4.97730969529464   -5.78703704878226
C          -3.32337490533518   -5.69244424431397   -6.54022114679051
C          -3.09393346777440   -6.16905799292566   -7.94185014959017
C          -4.55892845370672   -5.81840609169520   -5.96946913345420
C          -7.32675535905271   -5.87552461001765   -4.16428780786615
C          -7.90109639104318   -6.59006955836822   -5.15208475133060
C          -9.30081892295680   -6.94964473219090   -5.01891649729632
C         -10.19170647988821   -6.10507983206575   -4.35381501033088
C         -11.45932107897472   -6.55692532549871   -3.99581362849630
C         -11.82347305978275   -7.82998458708968   -4.46104672382505
N         -11.03721773176038   -8.58489618232006   -5.19820207611852
C          -9.80927658712196   -8.17718808393596   -5.45689326944154
C         -12.34898887720183   -5.76575456903857   -3.17701071979856
S         -14.05891932578789   -5.98863581056245   -3.27953124108799
C         -14.37857831505590   -4.78020493273651   -2.12294040352167
C         -13.22360996793862   -4.20244028941986   -1.64483466790586
C         -12.04163116729820   -4.78067040669423   -2.23704769617197
C         -10.78006710682682   -4.32168801680873   -1.80737790743937
C         -10.69686144093503   -3.26451978296199   -0.93703812577506
C          -9.43221773694516   -2.73778576710424   -0.60743219752052
N          -8.39311879632023   -2.30408486737964   -0.38392998705273
C         -11.87583307062669   -2.66578017258393   -0.38029926619602
C         -11.71718771350245   -1.57763471509033    0.50766252298749
N         -11.56985731638264   -0.67733996385883    1.20142815059210
C         -13.11313269046569   -3.15142411477299   -0.70555812302171
H          -5.60405040618193   -0.37971490575953    4.36947119356445
H          -8.13841793867934   -1.58529843812742    4.10478013428982
H          -5.90754449239063   -4.55363427985454    0.75992903810166
H          -5.11599460094240   -3.01332965393478   -0.65348509721891
H          -1.37128346504669   -4.71372640011304   -1.87587134319531
H          -1.59705260399590   -2.94320116357298    1.78150901062733
H          -1.65994012208641   -4.19970957156166   -3.97048732232450
H          -0.95030179261574   -4.73696554303325   -7.49272074723774
H           0.28346524245735   -5.19536390510375   -4.73421525091656
H           1.15165569195776   -4.82246510691814   -6.29884390465775
H          -2.23436953958156   -6.83612723467962   -7.98465895793588
H          -2.90174354065208   -5.32762409023979   -8.60799541470672
H          -3.96706472537681   -6.70104809365355   -8.31150487650619
H          -5.37365145797792   -6.23581009046494   -6.53976231126238
H          -7.97227098677019   -5.61542188073550   -3.33197503922526
H          -7.34630478995399   -6.99630857473991   -5.98253671452816
H          -9.90407388750375   -5.08526678141479   -4.15423247263388
H         -12.79665406592635   -8.24356435710124   -4.22897312233798
H          -9.19542041327118   -8.86189924952418   -6.02693050130030
H         -15.38969147615892   -4.54367949805099   -1.85851269902076
H          -9.87255183016303   -4.80102109779358   -2.13328135173482
H         -14.00358084974513   -2.73266249542446   -0.26185569651634
