90
 SCF done       -167.076713316388          0.000535690399
C          -1.59199811932015    0.27823314707268   -5.18251862667650
S          -1.73265683203674   -0.54640382033356   -3.69994128788411
C          -2.38061274710770   -1.96900701956860   -4.45240564706418
C          -2.51351495310305   -1.76935860871068   -5.83022863736038
C          -2.03874894468045   -0.47810702625107   -6.24545072488452
C          -2.07083939673862   -0.12167740350485   -7.61165306269336
C          -2.58548998068071   -1.00712861768179   -8.52198392458593
C          -2.61306846889054   -0.67302508623536   -9.89624010605218
N          -2.62723605199372   -0.37976684091838  -11.00388120238689
C          -3.13340926688136   -2.26172078011012   -8.09470120335916
C          -3.72620791387590   -3.11683105355433   -9.05092113171422
N          -4.22243836917199   -3.81371615730425   -9.81341753200327
C          -3.10881175886621   -2.62761369046589   -6.77206154087672
C          -2.58199249830588   -3.19848174732363   -3.76512216062396
N          -2.99050756499265   -3.34063775482855   -2.45879944043749
C          -3.45409084023103   -2.30088953644759   -1.57357302532893
C          -4.77152400984298   -1.69227878588486   -2.04471428199775
C          -3.05494200496269   -4.69703340564402   -2.07796485257589
O          -3.40471876822652   -5.05871671481632   -0.97000145186498
C          -2.61630967174455   -5.41795430354896   -3.24413824215469
C          -2.34162498104027   -4.46938990109787   -4.26842430449016
C          -1.78689927913362   -5.18186829533538   -5.40001670957145
O          -1.36440838144321   -4.80445359352695   -6.47496711564866
N          -1.81274109371535   -6.52871688555949   -5.00342006129315
C          -1.30768327437869   -7.56764964606959   -5.86766422074148
C           0.10285476024188   -7.99941492656135   -5.47400493734973
C          -2.29095364838157   -6.68555640192961   -3.72040829419780
C          -2.40966151566064   -7.94077364738825   -3.07696406975361
C          -2.85693579397984   -8.07401956902728   -1.80153754029931
C          -2.96269481419813   -9.32360708587396   -1.14421230592921
O          -2.63172459553781  -10.48530022794272   -1.76559319632713
C          -2.80633411672205  -11.48037671557709   -0.88659379405165
C          -3.25219884203176  -11.01278732933247    0.31086430073117
C          -3.34851065533747   -9.60858816784216    0.15981673555946
S          -3.96689840432623   -8.46569683539646    1.33211675855066
C          -3.03696443114871   -8.90416458712369    2.74626983615994
C          -1.70571709636881   -9.34978196430403    2.69263854319507
C          -0.99502664157707   -9.67442613643465    3.89655824010498
N           0.30892210589116  -10.01048603848643    3.82027853763935
C           0.88458980396850  -10.05270054302417    2.65262095076280
C           0.17264524913998   -9.77034509668997    1.46816129932170
N          -1.08261900069207   -9.42900192602877    1.49911750013411
C          -1.61188465624418   -9.56224639770888    5.16625249178358
C          -2.90589109189134   -8.98784989116006    5.20113007519974
C          -3.62111594047726   -8.68117942125692    4.00349351500565
N          -4.86898646979799   -8.17661255586766    4.06470778946091
C          -5.38335390455588   -7.94576830528884    5.23880967566557
C          -4.67144821271664   -8.22130149575644    6.42636468717201
N          -3.47570676042071   -8.73917298905766    6.39502845755858
C          -0.97207235158719   -9.90773882022731    6.39572118635885
S          -1.38877686934877   -9.03525881974745    7.82816805217679
C          -0.19249984372364   -9.83180181791995    8.78440966185488
C           0.44003567880556  -10.83864538471160    8.04807408948754
C          -0.00756157320039  -10.88465382155856    6.68244648529515
C           0.45282139648921  -11.91328370718814    5.84361506399154
C           1.37259487947628  -12.82242235804093    6.30878911827242
C           1.83981346541108  -13.84279748059144    5.45124879613573
N           2.20840844074941  -14.65663121549010    4.73282842818677
C           1.83669845435031  -12.76170692083022    7.65893091090504
C           2.76438034177535  -13.72120160211353    8.12244007684940
N           3.52129318187917  -14.48556841656583    8.51834668347378
C           1.35685365210366  -11.79906917512811    8.51380354011009
C          -0.01554959427119   -9.40681164402612   10.14472509111858
C           1.09695395600087   -9.50550953978867   10.87209758212896
H          -1.18730369085730    1.27033917364507   -5.20485767969493
H          -1.69383088010568    0.83929730364970   -7.92792362468471
H          -3.55914325804646   -3.55444093836886   -6.45834376829447
H          -2.68693815311873   -1.52766500140630   -1.46939877379820
H          -3.59533056066180   -2.78758342528959   -0.60392520583081
H          -4.65695924690973   -1.21304875364052   -3.01469397543022
H          -5.10865527546455   -0.94861959405593   -1.32831543781172
H          -5.53119136668506   -2.46584479110154   -2.12773245469106
H          -1.29202586748131   -7.14135872501031   -6.87478448755626
H          -1.99390543332855   -8.41897536169693   -5.85572297361458
H           0.77826352584747   -7.14901215436060   -5.52729963825896
H           0.45648920890794   -8.76675113479792   -6.15702708306782
H           0.12205891021080   -8.39446980698402   -4.46063526651056
H          -2.13445933896855   -8.82682672742528   -3.63032087639538
H          -3.13986845862701   -7.20672736545270   -1.22058466405116
H          -2.59243712276044  -12.47573908117711   -1.22426867926561
H          -3.47941691030697  -11.58113113337924    1.18903479600371
H           1.93328149416194  -10.31557987471845    2.63867583444991
H           0.64042670308534   -9.81762621464035    0.49464644615432
H          -6.38540992491825   -7.54143947401683    5.26188978785568
H          -5.09324237826977   -8.02724761037757    7.40254847495521
H           0.07802583094959  -12.00740762026635    4.83846257189475
H           1.65897436734814  -11.80652579603294    9.54873429666391
H          -0.87901020771046   -8.90893531138320   10.56887605377293
H           2.01247480461324   -9.91651846501235   10.48539226262395
H           1.12851985811908   -9.13824961039791   11.88277453578923
