82
 SCF done       -151.670829949594          0.000384228880
C           0.63540893964665   -1.76022288071009    3.51820248771291
S           0.07406783939063   -1.55428229336173    1.92378379557144
C          -0.67557493824381   -3.12118462181402    1.88854331008708
C          -0.48028419060045   -3.78008442558969    3.10714413801716
C           0.27858577123723   -2.98393080085612    4.03872788110537
C           0.58234254186185   -3.48816300034784    5.32268233038441
C           0.15674658684715   -4.74174455640589    5.67239146857945
C           0.45625427515396   -5.26649516445159    6.95127670331125
N           0.71007589446556   -5.67621528906835    7.99063647706946
C          -0.59144990841537   -5.53961755204507    4.74531581855964
C          -1.01092281242095   -6.83418304788608    5.12560857793826
N          -1.35889156223599   -7.88839726631867    5.41026764950197
C          -0.90148890633291   -5.06518069363716    3.49416715592772
C          -1.34677292921909   -3.53029988255503    0.70508784224521
S          -2.28893103944867   -5.00062714676081    0.58932848792863
C          -2.69303215187454   -4.68832546014829   -1.06950982827078
C          -2.10921906935191   -3.49403466864727   -1.49134553368879
C          -1.36358287871413   -2.84917465122694   -0.49126567981367
C          -2.25507119863708   -3.01635486671078   -2.80286568935916
N          -2.37709831903795   -2.65074703679230   -3.88402723879237
C          -3.49343296734786   -5.54906370216689   -1.85954543769751
C          -4.08043743089542   -6.68084595207202   -1.40549548920812
C          -4.87195160509310   -7.58135112322100   -2.17608589223896
C          -5.80016287187742   -8.49135277055852   -1.67070399502847
C          -6.15258591763246   -8.70801166949861   -0.24575185212810
C          -6.43279770434660   -9.21084034291009   -2.74244323285450
C          -5.85432156853027   -8.74025724483819   -3.92298972111839
C          -4.86759321451318   -7.72397906693482   -3.60766068700364
C          -4.13252452242011   -7.20271601548956   -4.64150522017688
C          -4.42550748949490   -7.63655808268080   -5.95204438067072
C          -5.39999883158191   -8.56725708185761   -6.15846607550939
O          -6.09684027815922   -9.12555122105129   -5.17697382850732
C          -7.46075075231092  -10.17793703687806   -2.58950569710303
C          -8.03834572503335  -10.87610400029176   -3.60405503838739
C          -9.09114022646975  -11.80645932066015   -3.43144818555207
C          -9.78106074143213  -12.15606847804996   -2.28501073549188
C         -10.77623349217612  -13.10729819587006   -2.60504652733307
C         -10.65914608710640  -13.35528304611737   -4.05895189707510
C          -9.65810335096621  -12.57173755378768   -4.53370037285597
C         -11.42922074992862  -14.22802415713269   -4.83263043201668
N         -12.04020983456690  -14.93330662496640   -5.50403793724435
C         -11.70169342363485  -13.68622471952133   -1.75851688869098
C         -12.69755014731886  -14.64077258030554   -2.08427486296123
C         -13.41157326918760  -14.97000919071730   -0.94815956729005
C         -12.87744727582242  -14.18619820226079    0.14907029693884
C         -11.85765908155425  -13.41499625023320   -0.32197983054598
C         -11.11808234418262  -12.51045905411735    0.44466244042465
N         -10.52380223663224  -11.77169602745510    1.09488389160887
C         -14.50322098589441  -15.87892349750136   -0.90806106604366
S         -15.30827839212213  -16.27321714921409   -2.39621173824973
C         -16.43526632211542  -17.28397077080734   -1.62258681271218
C         -16.22303219067555  -17.35681083719918   -0.26111251793775
C         -15.10243561612691  -16.55657265212667    0.16245252247564
C         -14.71748289960047  -16.58948980797444    1.51420058388720
C         -15.44060480015980  -17.33555518345620    2.41493501732462
C         -15.05255341108219  -17.36764037733673    3.77323630303319
N         -14.72414910810310  -17.38028092901693    4.87128141398375
C         -16.58267650526789  -18.09258756222467    1.99676657096417
C         -17.30878572329206  -18.83760667156078    2.95465720678702
N         -17.91120076974043  -19.44593326948343    3.71613125788954
C         -16.95848741440268  -18.10901376795705    0.67876868395476
H           1.19739391830739   -0.98191859492022    3.99391867083497
H           1.14903516895159   -2.88450401982343    6.01534943711471
H          -1.46256681889886   -5.69015349857155    2.81780039689612
H          -0.84745417492604   -1.91782672554776   -0.64617830967122
H          -3.64474599467092   -5.21513594717582   -2.87577487087726
H          -3.96491485714322   -6.91992298777323   -0.35520233205765
H          -5.53135577899729   -8.11524382955596    0.41777647100386
H          -6.03894499113992   -9.75994847829351    0.01491368182120
H          -7.19439207596065   -8.43789331913943   -0.07170453734086
H          -3.33901166894644   -6.48964946120759   -4.49049151832142
H          -3.88307626334628   -7.23671291146656   -6.79115118283136
H          -5.67961210751071   -8.93970409504534   -7.13260109372178
H          -7.80088801158457  -10.35513881672751   -1.57978159339350
H          -7.69290058094100  -10.72819123414529   -4.61760083441608
H          -9.61295636302469  -11.76871250567447   -1.30049672275279
H          -9.32178129093229  -12.51390358406308   -5.55318099729346
H         -12.85299575983728  -15.05974158662163   -3.05936391823111
H         -13.25643359085150  -14.16628543542304    1.15301830570910
H         -17.19649931687870  -17.78020071620087   -2.19095469388383
H         -13.84480643827869  -16.05579198813679    1.85415227252947
H         -17.80514766867208  -18.69504377169342    0.35435294532131
