81
 SCF done       -145.084851503376          0.000379784768
C          -0.70920114017190   -1.03533376069600   -2.56077406628347
S          -1.97349731417311   -0.52646823309083   -1.54081237601754
C          -1.54607473515286   -1.65896111974263   -0.31970753330045
C          -0.43881734835116   -2.41372121055533   -0.69573484531467
C           0.04411198006189   -2.04880759322144   -2.00061357635735
C           1.16349203886203   -2.71522198067109   -2.54435390560505
C           1.77553858191346   -3.70573957312952   -1.81966793103307
C           2.89706794433532   -4.38456723169287   -2.34922127891281
N           3.80722883253654   -4.92379381174136   -2.78999029362965
C           1.29407718323333   -4.06469580797178   -0.51620482189131
C           1.93588457341825   -5.09158966705929    0.21227404635540
N           2.42574858071735   -5.92393306911606    0.82997427887146
C           0.21140891581151   -3.42560586347966    0.03346648128278
C          -2.32538581008074   -1.69877322250500    0.89130143290998
N          -3.29436853863535   -0.78279139848449    0.98393853806713
C          -4.01153524475959   -0.79035627385397    2.09425911473946
C          -3.78322100802705   -1.68975007264947    3.11878828473168
C          -2.75374511051953   -2.62726600165725    2.93027367643813
N          -2.03305734585584   -2.61513895787673    1.80349188859462
C          -2.44105790161898   -3.61263635219537    3.93253916368188
C          -1.55114429463853   -4.60559848916787    3.70088345666634
C          -1.11940131217347   -5.64366876408873    4.55848330032548
S          -0.27930446684942   -6.96645822982671    3.81884701948725
C          -0.08304490096123   -7.82076372736488    5.31079579396755
C          -0.67856675351394   -7.10462509664230    6.36523535727135
C          -1.23631725037041   -5.85677966436833    5.94479541524651
C          -1.76987637144266   -4.99162745168237    6.91327525944330
C          -1.84168355444673   -5.36270902953264    8.23622578780067
C          -2.36682265291278   -4.43258016111559    9.23387640926635
C          -3.32049600050441   -3.53818749724996    9.01035446800285
C          -1.39680317278784   -6.65757663365652    8.63251877715575
C          -1.56111282891800   -7.10775610648733   10.05171192665312
C          -0.82513679934027   -7.49243979705438    7.71065553150039
C           0.62991020939934   -9.04400804113643    5.26470373770386
C           1.21639346146776   -9.69228304374762    6.30208933527922
C           1.91805643789708  -10.92173693721197    6.17944762351426
S           2.72453146595396  -11.58112540902325    7.58360355848542
C           3.28716567713875  -12.96344162588388    6.69402539217336
C           2.84851077605889  -12.90179973465303    5.36458452699943
C           2.08716790477859  -11.75121614013642    5.09422631560646
C           3.12523355716464  -13.90907842148421    4.35387486244365
O           3.74683862064863  -14.93463966129494    4.50650360047962
C           4.08040318975644  -13.97966764105501    7.26915266761964
C           4.51673649798293  -13.96789926497275    8.55454517753006
C           5.32031318364422  -14.94385676768929    9.19176028173877
S           6.09968621946906  -14.48257340583983   10.67649259436319
C           6.89061244752958  -15.97832827087722   10.83626049009295
C           6.57080499268046  -16.84456316555308    9.81107756473111
C           5.65594400246135  -16.26627255380449    8.85979345766581
C           5.18131884130785  -17.06721680644663    7.80468216285427
C           5.62720072157447  -18.36130379867301    7.67345170912807
C           5.13767090706472  -19.17905069716742    6.62942692149718
N           4.73325591143378  -19.84619744601348    5.79003138624744
C           6.57475622480452  -18.91461677721962    8.59471121432507
C           7.01839128232669  -20.24630716096646    8.42090276270448
N           7.39189268356218  -21.32296650895699    8.30201169868894
C           7.03136111485819  -18.16874959218590    9.64901843020597
H          -0.56950159472274   -0.57735257647822   -3.51991491923876
H           1.53064437201723   -2.44431668183393   -3.52294625473707
H          -0.15241937055735   -3.67730294660990    1.01579755064033
H          -4.79201034598500   -0.04227564446886    2.15430263004483
H          -4.37227476434956   -1.68120039722507    4.02133465862659
H          -2.98402198186761   -3.53240844399188    4.86046640168357
H          -1.13571481464491   -4.64752673578609    2.70158072719426
H          -2.08826056560989   -4.00383804712414    6.62700119303273
H          -1.92943651458993   -4.50324972052095   10.22060237493836
H          -3.81580977761803   -3.45266658121067    8.05751165071553
H          -3.65818167651273   -2.86838896874614    9.78233573039806
H          -2.58030351872078   -6.93682979314402   10.39410392708140
H          -0.88786717394940   -6.55654697043909   10.70896076589453
H          -1.33387214854162   -8.16681126283956   10.14544740986688
H          -0.50662284601924   -8.47535331968338    8.01753084762128
H           0.75509275367659   -9.45181207686201    4.27002469867217
H           1.20574810926411   -9.26089531401916    7.29103980311431
H           1.67163316517948  -11.54448035403598    4.12458370227421
H           2.69242795337202  -13.65413354795525    3.36775468861507
H           4.35681647278425  -14.76912702869614    6.58805716857193
H           4.27467332169988  -13.10398390725768    9.16467860864826
H           7.54778345879402  -16.15904437596959   11.66324600344126
H           4.45305084056761  -16.69389106773619    7.10371864839012
H           7.72958354074309  -18.58566351574611   10.35915973225560
