85
 SCF done       -160.604135871884          0.000382822196
C          -0.82773954448496   -2.15205603421249   -5.56668154332594
S          -1.73004668190168   -3.49350880691758   -5.03842492797565
C          -1.32417574311577   -3.21594079125344   -3.37806357417702
C          -0.46675972838349   -2.12177545034052   -3.25566424377779
C          -0.20160837190972   -1.49942058174639   -4.52463246755784
C           0.62847646402018   -0.35885918253831   -4.58983880428922
C           1.19778408635370    0.12190830872964   -3.44006145502932
C           2.02856567509287    1.26623767373297   -3.48353848541817
N           2.70071675518537    2.19224588441526   -3.53976316073374
C           0.99112477125252   -0.54436606113274   -2.18672542829538
C           1.64818421594660   -0.06216567113290   -1.03156549458058
N           2.18033913926049    0.30963877448526   -0.08731039336194
C           0.18366305182021   -1.65009322821999   -2.10019965945462
C          -1.88603928752872   -4.01395709386154   -2.34320038098065
C          -2.28608042559859   -3.65164382259926   -1.08077707230441
C          -2.44572656003958   -2.40328079220081   -0.31810421936165
O          -2.20544623883267   -1.26023361217920   -0.62367964336327
N          -2.99457898822603   -2.79910942201436    0.89387423416225
C          -3.30335053614635   -1.86883572192909    1.95155118878322
C          -3.24499613321000   -4.16447596399657    0.98522770587132
O          -3.71953801323973   -4.70400270914073    1.95700779066537
C          -2.81688176096603   -4.71522553970695   -0.30568450151375
C          -2.84853252639761   -5.92673377583296   -0.96284199990873
S          -2.19426856935873   -5.72718287064534   -2.57857532157052
C          -3.32061140323245   -7.18895234215181   -0.52951174898989
C          -3.86640820252817   -7.51480503393884    0.69548580617374
C          -4.23255109776001   -8.85979866584632    0.80337467784324
C          -4.92422612922532   -9.44706723792683    1.96981152550094
C          -6.33265784202385   -9.43286050158010    1.88101599052699
C          -7.11305223572190   -9.94530772170507    2.90179550398301
C          -6.49436391329102  -10.47711613052261    4.02362411235598
C          -5.12531693155114  -10.49610412168271    4.12796160596695
C          -4.31845773197976   -9.98136858387283    3.10609601098819
O          -2.98999511112270  -10.08867833164661    3.36574789426893
C          -2.01383632950848   -9.66166302085225    2.44878446183270
O          -6.81817140102022   -8.89280996850907    0.72695827850655
C          -8.21258920513566   -8.84132671668837    0.54593947670978
C          -3.98952958237889   -9.57575904875031   -0.36003125397318
S          -3.26793121152792   -8.57715409900754   -1.58515364431350
C          -4.24131528899424  -10.94395830838096   -0.62517335210208
S          -4.95186023181884  -12.02333734741702    0.58597116944841
C          -4.91259040951871  -13.45025937742445   -0.47936847085127
C          -4.36925633922590  -13.04162467018366   -1.67350700988319
C          -4.00374420772845  -11.68331930414299   -1.74563125121134
C          -3.51184607052109  -11.92605244960480   -3.15293782681353
N          -4.02825574957438  -13.30973210393951   -3.00960450289080
C          -5.37613291673479  -14.69346494552128    0.00443604095866
S          -5.65594512441825  -14.92304494509559    1.69601163804462
C          -6.12414979188965  -16.58003458536448    1.49511072469590
C          -6.07301604917741  -16.94224182405727    0.14774682566869
C          -5.66167714455320  -15.86509603927398   -0.70943165615748
C          -5.62356996677200  -16.04960139512771   -2.10048387188283
C          -5.93615664968815  -17.27794941138741   -2.63291622973933
C          -5.89037286365522  -17.46953279929906   -4.03084784015468
N          -5.83475373736201  -17.59979706943642   -5.16869710583656
C          -6.30653597778026  -18.36625608647165   -1.77920035803068
C          -6.60679916987655  -19.62326064429004   -2.35080094343896
N          -6.85028940744905  -20.65102779120412   -2.79577554482129
C          -6.38152385135901  -18.19425968095362   -0.41936120036747
C          -6.50218711831413  -17.39473426878586    2.60770875653168
C          -6.54809241921436  -16.97918451735374    3.87446928237699
H          -0.79954977632625   -1.89993222743772   -6.60803962698508
H           0.81187103761488    0.12136131509241   -5.53915009727585
H           0.06798446860780   -2.16148062642600   -1.15919424758865
H          -2.39227410293511   -1.37886328903844    2.29735593614914
H          -3.75740124429993   -2.43059860164954    2.76572410513418
H          -3.99464847074382   -1.10808208792092    1.58745655499635
H          -3.99927595896748   -6.79359060579773    1.48256215859535
H          -8.18839620699822   -9.93754032355253    2.83991662994248
H          -7.09942329127908  -10.87954337376715    4.82137806686778
H          -4.63174788292558  -10.90579704732481    4.99373997729547
H          -2.08538668340718  -10.20060888448139    1.49983675159342
H          -1.05941911822267   -9.89664383122568    2.92015260999452
H          -2.06797905273844   -8.58530116840646    2.26565925870453
H          -8.36422642970657   -8.37867845906113   -0.42814122313315
H          -8.69522509403264   -8.23056085050279    1.31497502605474
H          -8.65386822528731   -9.84297045658294    0.54370254562136
H          -2.43147971659766  -11.84837773546299   -3.27847407916287
H          -4.02562801249428  -11.37378754605014   -3.93894878770351
H          -3.45685701859340  -14.10206119932262   -3.26941022164360
H          -5.37351626555029  -15.22690904758210   -2.75084331841596
H          -6.67883537831235  -19.02079950260992    0.20777528021609
H          -6.76531690959277  -18.41601177835438    2.36740112769362
H          -6.29366782592034  -15.96753568890973    4.14486711197335
H          -6.84200907726693  -17.63717940394354    4.67190434766780
