74
 SCF done       -134.237297947031          0.000350824544
C          -2.75686030737607   -4.07761685402241   -5.47089382707217
S          -2.50932880661271   -5.00106871460263   -4.06476529139473
C          -2.28357924982104   -3.59627879443251   -3.07191695629556
C          -2.40342870944901   -2.43484240944162   -3.83816157881522
C          -2.67922896834237   -2.72435510065098   -5.22215792485996
C          -2.84249736376189   -1.67182841823821   -6.14944420649496
C          -2.74829144623009   -0.37565271019137   -5.71807222504244
C          -2.91383224773295    0.69361783684951   -6.62948854789572
N          -3.05040761942474    1.54761146761493   -7.38070106746799
C          -2.48917860774863   -0.08443196052158   -4.33747879632464
C          -2.41722540315809    1.26552303760847   -3.92291875977699
N          -2.36026914167665    2.35524546327809   -3.57355553399725
C          -2.31865910642418   -1.09224208602195   -3.42165952688039
C          -2.02033601621680   -3.77585867964263   -1.68329582528217
S          -1.43210204920356   -2.51945329394741   -0.63948171702879
C          -1.43949346660116   -3.59038458958396    0.73438571254743
C          -1.01055048246965   -3.06029242635850    1.98817684962075
O          -1.06870463987220   -3.62469208042876    3.06343450965675
C          -1.84695591472112   -4.88441619079280    0.37923278288649
C          -2.17751715880950   -4.95347842841644   -0.99294408861624
C          -1.96248824503622   -6.01337814778603    1.24448758515693
S          -2.32615113093195   -5.85266051928012    2.92402520134486
C          -2.58676356989996   -7.54696752892589    3.11355235853322
C          -2.31427118736904   -8.24256252211360    1.92433758673417
C          -1.93887516532296   -7.36906298566168    0.86167602384144
C          -1.52058159775243   -7.92999700912435   -0.35584157557145
C          -1.55218375007628   -9.29196833594158   -0.55639817820135
C          -1.09982356425264   -9.84823128414108   -1.82968343047770
C          -1.21783318518482   -9.24391028651664   -3.00506619699033
C          -1.99516144343932  -10.15960526170962    0.48614606719897
C          -2.05952180012847  -11.63808477002329    0.26491336518058
C          -2.34831499764556   -9.63096323442165    1.69914483648129
C          -3.00501835133408   -8.11000943181103    4.34642213123454
C          -3.09301602824330   -7.44757520673350    5.51918185514577
C          -3.50611779254912   -8.06728673866080    6.75558542383952
C          -4.29923926589858   -9.21509526552880    6.78304132543877
C          -4.58671457844642   -9.83905784539806    7.99478857745482
C          -4.11667057289475   -9.21885298636335    9.16036827122601
N          -3.42730018882205   -8.09709724624984    9.15230084592076
C          -3.12124638626857   -7.54087291074488    7.99774728957395
C          -5.34594000022262  -11.06772580223890    8.04199273998702
S          -6.41876112445346  -11.41080047476253    9.34876977966086
C          -6.92416350214963  -12.88696684723327    8.66127242254386
C          -6.29507900843288  -13.14333925892034    7.46334517296222
C          -5.36479757734000  -12.10067405400225    7.10840648032072
C          -4.58398785175720  -12.24500008429635    5.94451101931992
C          -4.78731756016940  -13.31882684313701    5.11503324067002
C          -4.03624789652127  -13.41032941484204    3.92352958309017
N          -3.42078938226585  -13.41803413422942    2.95584665975134
C          -5.75718611094609  -14.32613734619032    5.43970823381684
C          -5.94327431804165  -15.40821859125291    4.54932231374057
N          -6.10331827679744  -16.28546797430780    3.82967761690415
C          -6.47521904526855  -14.25038940575530    6.60369610686378
H          -2.94828706115108   -4.56234467119790   -6.40720442638425
H          -3.04378289787117   -1.89541760005260   -7.18616526951731
H          -2.12878248955427   -0.84901552058797   -2.38834875615789
H          -0.59808487609140   -2.03646578108909    1.91197967750501
H          -2.59686068362427   -5.82980038106002   -1.45260268076055
H          -1.10674359999836   -7.29751853938202   -1.12495083525078
H          -0.64798641288103  -10.82938388258161   -1.78445571979033
H          -1.69342438105855   -8.28301627587832   -3.11644299484765
H          -0.85633278532443   -9.69941149266466   -3.91095033249873
H          -2.62728486517229  -11.86724925440993   -0.63543416060178
H          -2.52797752317086  -12.13547250532022    1.10973465410260
H          -1.05733971725779  -12.04989884327725    0.14391102532712
H          -2.64694619214187  -10.29558413634402    2.49612251541209
H          -3.24355374419102   -9.16472850859840    4.30896070539942
H          -2.78309767408538   -6.41268867633061    5.57072552987730
H          -4.73711152336250   -9.58605709611045    5.86904902305886
H          -4.31400361758737   -9.65177547658155   10.13266972694378
H          -2.53956174051724   -6.63046603999009    8.05225821036198
H          -7.65911568245740  -13.48717233693824    9.15892169925782
H          -3.81152824018732  -11.52876802165953    5.71139612591342
H          -7.18021313077194  -15.02484027961163    6.86586156829034
