78
 SCF done       -155.614490671944          0.000711097088
C           0.28653108989804   -7.48921276173563    1.58743395292253
S           0.63031901834113   -5.84965291406738    1.78691747592947
C          -0.80116725796593   -5.35852205286248    0.95305941241407
C          -1.52643778607857   -6.48494877442097    0.50984211536557
C          -0.90487595737126   -7.71175775767165    0.90529657587703
C          -1.50065727908688   -8.94413464571640    0.58276574280336
C          -2.68479249197402   -8.95013316915246   -0.11666417638079
C          -3.30455595638922  -10.17956052808919   -0.44456478042661
N          -3.79002392405408  -11.18674257106403   -0.69357461489352
C          -3.30260353471861   -7.72401985222818   -0.51318061168218
C          -4.52385831438022   -7.77904040997161   -1.22578485139971
N          -5.51837808273823   -7.82632625067096   -1.79209602545974
C          -2.73178465970099   -6.50795748716829   -0.20492227492628
C          -1.07139480011970   -4.01316375245765    0.64088593854019
N          -1.84935174809292   -3.72537226152406   -0.40436852621188
C          -1.70436743784174   -2.41558167718254   -0.63807949049021
C          -0.79671593238904   -1.80591816871321    0.33698000684894
C          -0.54640137170701   -0.39971220712691    0.01435321095942
O           0.23267824858668    0.35853530628693    0.56801917800639
C          -1.39801231416637   -0.18049420988707   -1.15726929171503
C          -2.08755150148746   -1.43646011050178   -1.53077025594241
N          -2.86330036614661   -1.24958138264775   -2.61766542186521
C          -2.70385530557212    0.01415776573048   -2.94332365119990
C          -1.80498957447731    0.73826915073446   -2.07439951912813
C          -0.44651112530784   -2.79715705828756    1.22390446229558
C           0.27212083942740   -2.59878869716202    2.43004442609726
C           0.36433423171114   -3.36195757829988    3.60707103761907
C           1.22135423250141   -2.77665304756068    4.59064382199062
N           1.44809490504818   -3.38206901215594    5.76726055655108
C           0.81541586699137   -4.50384146231392    5.97350753720177
C          -0.06243500170853   -5.08700550934228    5.01986348859906
C          -0.76168008199585   -6.37145114773307    5.30588712768595
N          -0.26828682248371   -4.52284049874315    3.85300898465555
C           1.78962057068199   -1.56197935438710    4.17133501643135
S           1.15222568322920   -1.12274294647314    2.61647817848483
C           2.85566312335057   -0.85456381428367    4.75227428740382
C           3.41561397376160    0.20979632587023    4.10613268221101
C           4.66373975694454    0.79368128614775    4.39348625965364
N           5.32235904265659    0.67696324439161    5.53954740217324
C           6.42066964162365    1.43924283192709    5.41749560333443
C           6.47071459495415    2.10088952614838    4.10184751957866
C           7.67684386140695    2.93795895905748    3.97660763243720
O           8.01256423796909    3.62618737569979    3.03724541511914
C           8.34414066045812    2.71991156217410    5.27051846377751
C           7.54687178550517    1.80868496578518    6.11891667869652
N           8.16792402625674    1.59065958669022    7.30084300142971
C           9.28015192490653    2.28560999509722    7.23809123528288
C           9.45792677291703    3.00538452566130    5.99651758412806
C           5.38230461963008    1.65586732130011    3.41132394443049
C           4.96445962671771    1.94602850248654    2.07685931755375
S           5.18025943721689    3.53637387937451    1.43419781891903
C           4.33968394657805    3.15972564900142    0.00503159215460
C           3.91775572687010    1.84529154525169   -0.02928481334144
C           4.31309480478822    1.12358099370568    1.15181973306757
C           4.06432586235436   -0.26102331577291    1.22602266123151
C           3.31851348515248   -0.86885821340402    0.24477925908930
C           2.98288903529814   -2.23542617654342    0.34845048978936
N           2.67552486530215   -3.33450206012614    0.47168288155014
C           2.81886545096800   -0.11752422754578   -0.86984418673968
C           1.96208421067177   -0.76799545618812   -1.78402731787824
N           1.23279053728509   -1.29365788609173   -2.49563265919960
C           3.14801997547981    1.20368301680820   -1.02281573353981
H           0.95929280057664   -8.23629490256487    1.96208193177400
H          -1.03394541211179   -9.87050903321119    0.88167742614244
H          -3.18486458811501   -5.58054354388677   -0.51715862884791
H          -3.21861497316535    0.42255740437680   -3.79534599597656
H          -1.54391796251222    1.77386312555174   -2.16882249813834
H           0.99058333247811   -4.98760525509687    6.92451003434877
H          -0.03353821511252   -7.16765289653140    5.45521477887469
H          -1.41511716398330   -6.63009754848316    4.47743373283958
H          -1.35084638695042   -6.28400459357499    6.21702705105903
H           3.29368779454266   -1.24615929117510    5.65899860260637
H           2.90944552746053    0.58819885334396    3.22699790863233
H           9.96360613620994    2.29061935222317    8.06935515475623
H          10.29805486049548    3.62259920654634    5.74655588120009
H           4.17912210646941    3.91198570828538   -0.74157972963099
H           4.45285854439686   -0.84416012553785    2.04791032464190
H           2.80461255388518    1.75971063166877   -1.88171748222692
