86
 SCF done       -183.219148599072          0.000478980510
C           7.20718100056324   -7.64701030193063   -0.73240578602209
S           5.69428288721749   -7.95699641917351   -1.45501823515728
C           5.63457942219785   -6.39733553877385   -2.18043698794812
C           6.76956216615751   -5.66291853032199   -1.89006213357640
C           7.67849933999844   -6.39121282674520   -1.03966478182897
C           8.89102950937587   -5.79118176371624   -0.63036563730458
C           9.18858031956788   -4.52469492562869   -1.05464122660454
C          10.39752773462532   -3.90802989754552   -0.65473160287303
N          11.37994724931627   -3.42493499690790   -0.31702625967142
C           8.28549969220080   -3.80181783762003   -1.90843765958439
C           8.63450935543681   -2.49359488613028   -2.31825396798553
N           8.90075999058370   -1.42843447502832   -2.64514677014462
C           7.10278151125211   -4.35790544500935   -2.31643648283597
C           4.50146615664925   -6.00015222831998   -3.07080844411160
C           4.93490914300563   -6.15302294933522   -4.54659692422234
O           5.83586221291290   -5.59865717987052   -5.09225576934584
O           4.13458772501186   -7.05859863745166   -5.15639930086625
C           3.19533878296184   -7.51742817804489   -4.26807746544510
C           3.32730941641031   -6.92200314726143   -3.01208617404717
C           2.48010195480753   -7.24343494829614   -1.96835758402733
C           1.51269217720946   -8.18975866872673   -2.25255520917110
C           1.39002853606719   -8.79697327807280   -3.50608844974844
C           2.22998654083827   -8.46661714427997   -4.55284540843570
C           0.25951452782379   -9.76911484976986   -3.41761420756886
C          -0.21623786713369   -9.55517329085508   -1.96850800852367
O          -1.13155930682182  -10.09763332651087   -1.43465515000579
O           0.58308568143158   -8.65037659771617   -1.36217549311140
C          -0.89978042711613   -9.52751814308516   -4.39222931681523
C          -1.26076894194987   -8.04060453175372   -4.48468301333329
O          -1.41850552689094   -7.27529759542020   -3.58517628698041
O          -1.36084340576108   -7.68332941712274   -5.78972420972165
C          -1.00264753661919   -8.74547594735573   -6.58143885982417
C          -0.66108590464580   -9.87026515846458   -5.82602305742508
C          -0.21979130606333  -11.03339454786223   -6.42824104997269
C          -0.16338309172627  -11.01128890218081   -7.81023796318586
C          -0.55060325991058   -9.90074449630999   -8.56739625431746
C          -0.97402501283147   -8.73055681254541   -7.96469784861470
C          -0.46261460114850  -10.29596359998468  -10.00597058011676
C           0.11070796307415  -11.72228113519345   -9.89705782818573
O           0.39461341731702  -12.44499161393401  -10.79806238337942
O           0.25319408598607  -12.04991974151181   -8.59274192550394
C          -1.84520191379908  -10.37046881423110  -10.68704660935893
C          -2.84224632805084  -11.03113540329459   -9.72453228714505
O          -2.73522162512080  -12.08682601301972   -9.18355527731481
O          -3.89088591751045  -10.19722110875503   -9.51652782489224
C          -3.70479646833715   -9.04370693448619  -10.23082555584420
C          -2.50623615182516   -9.05825594802162  -10.95025425156740
C          -2.13623473204089   -7.99134767691157  -11.74888347319749
C          -3.02545737365815   -6.93161230234957  -11.78575163470046
C          -4.22282848721274   -6.91895925663255  -11.06399051303344
C          -4.59142645093890   -7.98205796981211  -10.26190223910899
C          -4.93155086640028   -5.64090773491172  -11.38713452818039
C          -3.95414722764316   -4.99932217443315  -12.39887470729838
O          -4.09189442042575   -3.96976395280661  -12.97773523895553
O          -2.87314908596167   -5.80351419130661  -12.54796448240506
C          -6.29596798336119   -5.79492450349922  -11.97200408797128
S          -7.54822936206019   -4.70112827428830  -11.53814941641036
C          -8.67456791374194   -5.44903576146687  -12.57051675814785
C          -8.12347661601229   -6.51332008155521  -13.24904887272408
C          -6.73525441706472   -6.71467168916137  -12.90987707317875
C          -6.02242638229249   -7.76725070375127  -13.52564729956535
C          -6.65915079285823   -8.58410028714744  -14.42214814551769
C          -5.94214020429966   -9.64565573997566  -15.02120750734509
N          -5.33282347111219  -10.50130506884404  -15.47874874117142
C          -8.04157008527329   -8.38447686960731  -14.75464133384997
C          -8.65668227601727   -9.25498255773640  -15.68483970982622
N          -9.16817397780659   -9.95275197497225  -16.43551025624092
C          -8.75543611750733   -7.36716129323215  -14.18059902165139
H           7.67321875006460   -8.39545997028166   -0.12376407279934
H           9.57161227772681   -6.33369766243833    0.00821088299305
H           6.44166321644894   -3.81253153230269   -2.97159543687882
H           4.23655629877209   -4.95337166842133   -2.88590928198136
H           2.56096825980004   -6.79256581936305   -0.99410706914231
H           2.15024510428571   -8.91894518387852   -5.52731811140860
H           0.59497752665810  -10.80584355881731   -3.52685875756058
H          -1.77206892533225  -10.06718357935775   -3.99856207739635
H           0.05115611783261  -11.91390474218981   -5.87124218601883
H          -1.26533591165824   -7.85940784970388   -8.52747081321191
H           0.20201551931763   -9.66796952935010  -10.60430161428454
H          -1.74418363854531  -10.97830718582530  -11.59331934717703
H          -1.22670610146457   -7.98297771398219  -12.32530088212250
H          -5.51366146847740   -7.99745589209950   -9.70669917145201
H          -4.99387398188893   -4.97529467773989  -10.51894749955975
H          -9.67784674164116   -5.07864128631130  -12.63563038030854
H          -4.98168939224155   -7.93673285327755  -13.29688961596352
H          -9.79403257262721   -7.21347109676023  -14.43133602154659
