87
 SCF done       -153.883826275372          0.000845320359
C          -4.68824470825018    1.39407206351839   -2.30280880081655
S          -5.01993811626853   -0.24114458585457   -1.94391761129084
C          -3.34339030952701   -0.68686531416581   -2.02470261163059
C          -2.55202664082023    0.43874270050061   -2.27992892862540
C          -3.33996550255998    1.62924044661134   -2.45975173721927
C          -2.70024471903537    2.85708422524993   -2.74025110854894
C          -1.33227310438383    2.90486974407169   -2.80089069471174
C          -0.67683742144785    4.12526375933124   -3.08471359063394
N          -0.16478652662793    5.12280936494870   -3.32115512303479
C          -0.54663953247659    1.72985064268018   -2.55787461164464
C           0.86153577083004    1.81732482178225   -2.59433212686197
N           2.00646421405312    1.86904247165526   -2.63063954136467
C          -1.14992672183180    0.52218715135926   -2.30027974384451
C          -2.92641241962247   -2.01920479969413   -1.76580882265545
S          -3.67894970921639   -2.89462588291262   -0.47102132693886
C          -2.54891569405974   -4.21376933697077   -0.57181310812048
C          -1.64319525905669   -3.99547962915438   -1.63350410980425
C          -1.89592249198588   -2.77585501208148   -2.34042067633080
C          -1.18238243640957   -2.49311278905689   -3.53999075958700
C          -1.59242988671306   -1.41412239532261   -4.43407389469502
C          -0.76957072319352   -0.69277460840362   -5.18381675737026
C          -0.15773626806111   -3.34231550361736   -3.89731381799092
C           0.15048742873174   -4.48194659455470   -3.14529480391589
C          -0.59615846916293   -4.83236970545478   -2.05187071796760
C          -2.70798631154965   -5.25615102228518    0.35975617876543
C          -1.90950247857364   -6.35781328414024    0.72991626074939
C          -2.48320954101912   -7.15246005888024    1.77545821854029
N          -1.85540272515688   -8.24361357604093    2.24279169607011
C          -0.69404261862877   -8.52616855403449    1.71362794483658
C          -0.09795694248073   -7.73452879570016    0.70415123186837
C           1.22822617784182   -8.09629164642301    0.11208642111947
C           1.05683552564670   -9.19305132166767   -0.94210309216587
N          -0.70732018137421   -6.67466119069210    0.22564101776728
C          -3.72546569417369   -6.67523543292232    2.23556704502788
S          -4.15109878343929   -5.24580990645568    1.34788258290845
C          -4.56779270787605   -7.17566687971165    3.23321393754388
C          -4.28736562094529   -8.28935912808885    3.98134521578465
C          -5.11314898201647   -8.77788741033773    4.99993868060099
S          -6.49736522573365   -7.86580371779353    5.52517548756420
C          -6.83765828653863   -8.93667084527262    6.85072995704234
C          -5.91232962583566  -10.00471312245545    6.85974391127373
C          -4.96393134214636   -9.93595835246992    5.79308555605932
C          -4.00774830757307  -10.96949195577415    5.63066818126415
C          -3.12237505494482  -11.05188647633088    4.46726448361854
C          -1.83274589192544  -11.34645852539311    4.53655444296068
C          -3.97394717930938  -11.97804902697612    6.57133257152414
C          -4.89308743455270  -12.03530549272349    7.62349223498950
C          -5.86834259583891  -11.08421601554421    7.75879910994824
C          -7.86709887558576   -8.63157270756269    7.76515885661194
S          -7.86460915419329   -9.27874747014751    9.38404051692715
C          -9.25391924287028   -8.40324393018701    9.84297167929527
C          -9.74226516278196   -7.63259819667014    8.81279280245302
C          -8.96031579127248   -7.75543051550057    7.60959432114878
C          -9.37842886383111   -7.06882909035022    6.46029818613447
C         -10.49169755921213   -6.25960067317493    6.50459924159693
C         -10.90510684433789   -5.57469427373401    5.34196806988616
N         -11.22352877618572   -5.02429452715665    4.38764147280568
C         -11.24110793852079   -6.10758830773995    7.71502672009599
C         -12.37080570174895   -5.25746451966670    7.73078846415783
N         -13.28799850947855   -4.57139318104325    7.76629856406729
C         -10.87617735501165   -6.79153633781290    8.84446539790258
H          -5.49114164095882    2.09963796591267   -2.37603364321311
H          -3.28963396916308    3.74782369590534   -2.89754947868301
H          -0.54794832808764   -0.34953956767055   -2.09545474789169
H          -2.65973564766832   -1.23702627006513   -4.48342654320279
H           0.30046973120134   -0.80965855407221   -5.13580202670421
H          -1.13514410836794    0.06152946062048   -5.85927455052233
H           0.38755843509935   -3.14866746087141   -4.80833185410125
H           0.96297495116744   -5.11640659439590   -3.46607680545536
H          -0.39835246170222   -5.73427561779707   -1.49838076215355
H          -0.19311571802229   -9.40455038142490    2.09743663126782
H           1.89722664967502   -8.44747216876016    0.90041980372573
H           1.65951281821581   -7.20775552527987   -0.35106040575877
H           0.62988164388991  -10.08948258870705   -0.49729279733206
H           2.02001428264263   -9.44683975098768   -1.37741385020912
H           0.39523697217947   -8.85350948237104   -1.73572815808383
H          -5.49198574777523   -6.63596739381612    3.40224307569003
H          -3.35559855482056   -8.80010959843001    3.79421032291001
H          -3.59615781505764  -10.90349773296786    3.50532940647147
H          -1.32950370538677  -11.47827577094956    5.48021375006408
H          -1.22768244975656  -11.44067965931481    3.65178291884510
H          -3.25027190355534  -12.77124409578895    6.45944651264631
H          -4.84872514861965  -12.86082538466819    8.31759389909153
H          -6.60434782958743  -11.17600272256695    8.53968863169920
H          -9.64354749497882   -8.50111468024740   10.83595951800615
H          -8.84934619983824   -7.17417683203171    5.52682672258322
H         -11.44740591041079   -6.69706905482789    9.75564588713929
