90
 SCF done       -172.667640925156          0.000917008065
C          -4.54084014816787   -0.83452037879016   -3.89046745376083
S          -3.59791015653345   -0.80593848004168   -2.47703054469288
C          -4.04470262160868   -2.42824427298497   -2.03092415954525
C          -4.92601576522882   -2.96140224278645   -2.98746329024017
C          -5.20315196305602   -2.03308458292122   -4.05125857301094
C          -6.07599874917543   -2.39010293025220   -5.10174188757262
C          -6.67417998579103   -3.62264687982305   -5.09025995388843
C          -7.55301166976422   -4.00198428985255   -6.13248813739782
N          -8.26095266726606   -4.29453102599791   -6.98388912713001
C          -6.43092821637338   -4.53468584979079   -4.01359750344524
C          -7.08650875667771   -5.78691782509748   -4.00327089543946
N          -7.60425070171235   -6.80879612317568   -3.97530882583846
C          -5.57599791154342   -4.20711506881373   -2.98775597284865
C          -3.50078987236249   -3.04867083348597   -0.88092777773928
S          -3.37937740455711   -4.77883219497284   -0.78288752021458
C          -2.66058365742013   -4.74675897752840    0.79234127719684
C          -2.46106986851522   -3.42186727432739    1.20805549493681
C          -2.95215140154508   -2.45719917463561    0.27265302707231
C          -2.88411692728000   -1.09255520645228    0.60353178367363
C          -2.28508085898654   -0.70360670650283    1.77887570895496
C          -2.22704116045278    0.66970345775339    2.11211333936419
N          -2.18610371773664    1.78797030269738    2.35766792842938
C          -1.69176707552267   -1.66598195804478    2.65044408215911
C          -1.00478056957682   -1.23352179271940    3.80808199754293
N          -0.43309189146293   -0.89970589260171    4.74275127060174
C          -1.77999637209432   -3.00645226572723    2.36417445615013
C          -2.49187535087594   -5.89971084213917    1.59545171589487
N          -2.19304656750618   -7.16812438927818    1.15146608062673
C          -1.79265155409813   -7.54877364591357   -0.18196782829259
C          -0.44295510603639   -6.95211663032484   -0.56727013652305
C          -2.17884350584982   -8.09450946798866    2.20629260257389
O          -1.89879770580176   -9.27198928212119    2.06106353779506
C          -2.55167380633288   -7.32725345295277    3.36890586706046
C          -2.70378605476970   -5.97725308582781    2.97065994173775
C          -3.21490203523361   -5.22901799979991    4.10349562509773
O          -3.52172595562822   -4.06144916575804    4.23254379322643
N          -3.31096283460840   -6.18112686471405    5.12931601857527
C          -3.80862010172581   -5.82314421587865    6.43660937942261
C          -5.29301375027422   -6.14495847144589    6.58907727517303
C          -2.94518051797067   -7.43944890190087    4.70770925008432
C          -3.02406570748722   -8.60119744874276    5.49868808648188
C          -2.62412764475490   -9.81651382469174    5.01746655745028
C          -2.74036629061646  -11.03580321516111    5.69364828225994
S          -3.52321058341827  -11.19138780363450    7.23474490436205
C          -3.29661654949854  -12.91195005726942    7.30108113065345
C          -2.60675351481021  -13.35709834373234    6.15378035245458
C          -2.30273367321488  -12.29660415688986    5.24350206074670
C          -1.63065508588650  -12.55982011897721    4.03996504974869
C          -1.26555358979414  -13.85202602071820    3.73952692161689
C          -0.57266111710631  -14.13932630522214    2.54019408640605
N          -0.00502001838209  -14.36622766774169    1.57168536316540
C          -1.59037256250578  -14.91784373990401    4.63062979470377
C          -1.23113558638308  -16.24405281827234    4.29412693592726
N          -0.94548621303643  -17.32517381923146    4.04521005821175
C          -2.25415326216938  -14.67308500132370    5.81095511298731
C          -3.74785936303788  -13.65582191335640    8.41588680878763
S          -3.01267711629114  -15.17283223169804    8.85296155826375
C          -3.99856625282629  -15.36457178795099   10.22375053471255
C          -4.88726460691805  -14.32142885730847   10.37682870217557
C          -4.75326742302832  -13.32874449013609    9.34426987216916
C          -5.63106113142789  -12.23242556984806    9.34067962649290
C          -6.57326065644825  -12.10323984731488   10.33428329395324
C          -7.45041084454553  -10.99515227802118   10.31944017882266
N          -8.14480307111100  -10.08420443872313   10.28451358052414
C          -6.67982155140366  -13.07525856922492   11.37965028411552
C          -7.65769880239394  -12.90193444219875   12.38776060459506
N          -8.44564568705239  -12.77543044743149   13.20929834261958
C          -5.85500935558826  -14.16935734571196   11.39331503954172
H          -4.57202894739374    0.02375324710316   -4.53121661003786
H          -6.26986692120524   -1.68980482027111   -5.89980579757961
H          -5.43074580094189   -4.91064583323733   -2.18334822477906
H          -3.30521634304786   -0.34154843692434   -0.04570098718881
H          -1.31311842526505   -3.73128960045809    3.00984718227758
H          -2.56448330931110   -7.25538317386758   -0.90009367620950
H          -1.72699849398275   -8.64043736774320   -0.16808598237943
H          -0.48152821535362   -5.86469384609226   -0.57255140044007
H          -0.16308722430969   -7.29407062630948   -1.55932510797385
H           0.32175557940432   -7.26859693071291    0.13800044285198
H          -3.65773392510982   -4.74457744281591    6.53533975646099
H          -3.21612168747115   -6.33384457748088    7.20041139375812
H          -5.86925477475805   -5.58911122381092    5.85376633687102
H          -5.63058652727641   -5.86011887996234    7.58138175757190
H          -5.48230351246992   -7.20670028009445    6.44661391404358
H          -3.42384440228348   -8.52457625486437    6.50035980454621
H          -2.20177469154557   -9.86170215779441    4.02302202577455
H          -1.40669858586398  -11.76105326637788    3.34974722098651
H          -2.50413617350353  -15.50250904664197    6.45276121288595
H          -3.88683088682119  -16.22896867300162   10.84703959625548
H          -5.59188468366332  -11.49097416391841    8.55876935288144
H          -5.94206984945624  -14.91657920111187   12.16725279967155
