83
 SCF done       -154.620399456068          0.000527657100
C           0.21418087264472    0.36948153620676   -0.63084556350803
S           0.19375497871238   -1.27645462504528   -1.06805207090680
C          -1.23495263078990   -1.59483071043508   -0.14137785579404
C          -1.69212054418702   -0.42796773893123    0.47024144082346
C          -0.84293397312476    0.70186778156381    0.18707093507511
C          -1.14698892225917    1.97014852307957    0.72923396998893
C          -2.26721916659948    2.11998204147659    1.50228319008558
C          -2.58617294797717    3.38103771616926    2.05740694794924
N          -2.82654537672371    4.40984448132001    2.50062048158945
C          -3.14241474302453    1.00832023705329    1.74246934844002
C          -4.31394486728561    1.20903890898556    2.50717818790799
N          -5.26793266785093    1.35398250140395    3.12540463394848
C          -2.86081764014558   -0.23500206950992    1.23362500946695
C          -1.77208136440619   -2.92401137277026   -0.08760294520647
C          -2.41869936545520   -3.46385665383900    1.03908029194930
N          -2.92434720890950   -4.66842932070479    1.04841558228295
C          -2.79485757196805   -5.42272356391071   -0.05375950543158
N          -2.13653765183906   -5.03121304321817   -1.15517076421225
C          -1.64546568114218   -3.81867811439327   -1.16387900922606
C          -3.39339878087231   -6.71307833332999   -0.00640921707108
S          -4.24567237691525   -7.15823819467418    1.42203915338409
C          -4.67206975161172   -8.70928674819262    0.77430384667508
C          -4.15800194907235   -8.86919058277653   -0.52875997293655
C          -3.42590587667137   -7.73068296673476   -0.97306383478096
C          -2.83951401902649   -7.73359596016947   -2.24600172150794
C          -2.97798139442633   -8.82635734127455   -3.07326390345021
C          -2.35258911568407   -8.82512104025756   -4.39447545230399
C          -2.16207046232192   -7.74155143598365   -5.13583835767203
C          -3.71904409546459   -9.96458532235437   -2.63456002683063
C          -3.89379162924362  -11.14495170502722   -3.53911900776050
C          -4.29025438904483   -9.97250231829742   -1.38766768397481
C          -5.43563828281406   -9.64044747619536    1.50140992528521
C          -5.92118727792587   -9.43526742351769    2.75639653097345
C          -6.69154354979769  -10.37953160685202    3.46345599319866
S          -7.09107192079327  -11.92736506770543    2.76538346532506
C          -8.00713885463267  -12.42682283187860    4.16868143945975
C          -7.97914971868092  -11.41727718437226    5.13617058714190
C          -7.25677847321599  -10.26119942710736    4.72852066368817
C          -7.14880291289674   -9.06081540182266    5.55443436685014
O          -6.47194726156880   -8.08941780585070    5.25589042816773
C          -7.95224622858497   -9.08731578686046    6.79598366408161
C          -7.98910873906194   -7.94169042598544    7.58724097209028
C          -8.72793589417501   -7.91479401280394    8.75451271935552
C          -9.43670047532560   -9.04021307218859    9.15210498889121
C          -9.40077385659020  -10.18604823842835    8.38149360356146
C          -8.66561494561955  -10.22251684111826    7.19758795758789
C          -8.63961806461196  -11.47791617920308    6.42540094036667
O          -9.14421925654280  -12.50179625379451    6.87838084440737
C          -8.60630838312621  -13.71290836979803    4.17763408718531
S          -9.00369106894206  -14.54639598589881    5.65138349335930
C          -9.42328383027487  -15.96581164407050    4.82884280784394
C          -9.33970067569457  -15.84245701385836    3.45448245996393
C          -8.86741349850274  -14.54271745072202    3.06541000730631
C          -8.78657208565106  -14.24790334873891    1.69462918442887
C          -9.09664194518662  -15.20972505206947    0.75954539042473
C          -8.99576585403230  -14.89534127735395   -0.61406429679871
N          -8.89355601885191  -14.61758067051606   -1.72154692211830
C          -9.51826643951678  -16.51642629215265    1.15560816659258
C          -9.81265439733086  -17.48317923291770    0.16713477984277
N         -10.05454253476627  -18.27873268161009   -0.62133550774317
C          -9.65250211073848  -16.81735615563762    2.48771372999312
H           0.99369022204702    1.01088395584081   -0.98997209972925
H          -0.50025483123500    2.81044411126238    0.52659379470945
H          -3.54815319420637   -1.04958697478151    1.40198884751037
H          -2.49099069423592   -2.91361768770764    1.96820812615122
H          -1.12898998402593   -3.51901791699787   -2.06904986860343
H          -2.26641932356114   -6.87387392392578   -2.54993698286213
H          -2.04047248235677   -9.78813742251682   -4.77456562602473
H          -2.48973702027790   -6.76585035353192   -4.81869600427252
H          -1.69008132866433   -7.79617442234478   -6.10186819281687
H          -2.93936890014596  -11.64396988940976   -3.70785524923450
H          -4.28598092216630  -10.83312632666150   -4.50567603149485
H          -4.58056133945739  -11.86473435262171   -3.10133306483110
H          -4.85212736826238  -10.83590015588502   -1.06406590546159
H          -5.64353534307369  -10.58287464467327    1.00867337936767
H          -5.72711824365802   -8.50381572795622    3.27071298960392
H          -7.42571563058155   -7.08056759906648    7.25978808953445
H          -8.75192516757519   -7.01920282209629    9.35697458695327
H         -10.01374687120381   -9.02255764277255   10.06443478272488
H          -9.93872394237453  -11.07484500487242    8.67621526522178
H          -9.75332317007539  -16.82946803412438    5.37231276657894
H          -8.50512345136985  -13.26729756281212    1.34713246807188
H          -9.99580614541108  -17.79198395676370    2.80024133119121
