90
 SCF done       -174.316124575223          0.000814842555
C          -3.70005911800532   -0.25599039866285   -2.35284109810015
S          -2.03828364553187   -0.16563146025373   -2.76686774516904
C          -1.81416915590190   -1.87688721869660   -2.56884534613170
C          -3.01210000564490   -2.49162563616723   -2.20613287135638
C          -4.08720363449022   -1.53847918663774   -2.06097264794422
C          -5.37528264161984   -1.98941387920066   -1.68475112472693
C          -5.59465016888307   -3.32470892411823   -1.48524937463741
C          -6.87391172643727   -3.78964104033786   -1.10299293014188
N          -7.91241720270082   -4.15476142585776   -0.78468237631929
C          -4.53479762591949   -4.27671981923141   -1.67313758143460
C          -4.77416857206482   -5.65370105269116   -1.48146514037071
N          -4.91542787797951   -6.78029049024969   -1.31888353641760
C          -3.27662520574134   -3.86301707879301   -2.03137388251571
N          -0.59271708981560   -2.46063536895281   -2.75153624184482
C           0.34805924617669   -1.84105700193862   -3.66583637668150
C          -0.07129458707533   -2.01225731132322   -5.12266007499650
C          -0.21187368697694   -3.56594293057527   -1.98372440479088
C          -0.56472678139246   -3.64064410341851   -0.63301412468018
C          -0.23230506494300   -4.75199156095980    0.10826383815275
C           0.47454862144074   -5.80557775655504   -0.46435665349579
C           0.88462959387540   -5.72163564633083   -1.80182108353123
C           0.53036274201380   -4.59954826964122   -2.54413680331349
C           1.69959531840657   -6.78345841459053   -2.39030795108131
C           1.66108373397111   -7.16054670818944   -3.66022150674960
N           0.71044963440749   -6.97948251496932    0.29042888418410
C          -0.01959936764771   -8.18133689342690   -0.09384766477789
C           0.86226930282460   -9.42149861647198   -0.18701431167232
C           1.31251191061106   -6.92996284816384    1.49258042618013
C           2.03603810442722   -5.88510290576692    1.97656308935963
C           2.66318170479808   -5.90980950308770    3.24481283391711
O           3.35565695790384   -4.82793838426518    3.66637986316638
C           3.86911535058806   -5.06249454068260    4.91211276197155
C           3.48941561949481   -6.34506942127630    5.29028172847853
C           2.73078998786620   -6.87657115100334    4.24243781491038
F           2.17855341149756   -8.09423376385009    4.20219168916135
F           3.79575080795612   -6.97731180751100    6.41975150540269
C           4.64223019587205   -4.01749140722179    5.47137015147397
S           4.94010987240077   -2.65804758532363    4.43722968243112
C           5.86065822277557   -1.81877592787025    5.64580182535255
C           5.96239956856164   -2.58991628980851    6.80464891427885
C           5.24924138747627   -3.83822015997479    6.72223668125626
C           5.26433940447302   -4.70620217015583    7.82809384569000
C           5.98856209226128   -4.38251414274012    8.94598205940645
N           6.11077214819243   -5.38787387043326    9.98203129734037
O           7.21608067326518   -5.54993774979103   10.44530260251178
O           5.12303558620348   -6.02852003113044   10.24734559296563
C           6.72639056449964   -3.17157270390514    9.00821808655182
N           7.39673283197155   -2.75145045701148   10.22174471393694
O           6.86814218602094   -3.04699052580526   11.26628780089868
O           8.39036535089934   -2.07509342624666   10.08928658430016
C           6.71933624746975   -2.29866108027579    7.95553176201445
C           6.42148518689439   -0.54020103899491    5.36767532824790
S           7.09833310834941   -0.20643865200827    3.80476650515558
C           7.56597693464769    1.36883016054926    4.24995150030036
C           7.20874349376782    1.67100030730437    5.54633447787075
C           6.52914990259941    0.58056317279579    6.19557261685448
C           5.98593531708639    0.77490196034097    7.48076852810622
C           6.17238194665637    1.97380152044133    8.12245714336610
C           5.60926962322369    2.18609439489584    9.40225847958480
N           5.13683394482405    2.34925500723527   10.43302041928135
C           6.91601222679728    3.03293907803201    7.50343115541751
C           7.10327175895483    4.24771259668565    8.20459224456227
N           7.26273581798752    5.24163494372594    8.75110978986328
C           7.41332392755739    2.88677924220475    6.23585238781346
H          -4.29444349466675    0.63430614336374   -2.35769240681860
H          -6.17531201138219   -1.27542409019902   -1.55974060714460
H          -2.50041601624734   -4.59646344679518   -2.18633779953209
H           1.32901220400870   -2.28673014968346   -3.49414365114651
H           0.41525076641048   -0.77284571681051   -3.42612610899621
H           0.65525596342754   -1.53503914995708   -5.77400959477717
H          -1.04255366740480   -1.55499542738136   -5.29522316339415
H          -0.13700083775684   -3.06563855264137   -5.38398647880703
H          -1.11307093564034   -2.83114621322941   -0.17697503120637
H          -0.52837952806791   -4.81826271019828    1.14399992699435
H           0.84219826170646   -4.54216781564219   -3.57486025776900
H           2.37284310101580   -7.27260044700784   -1.69843396005442
H           0.98070366962440   -6.72033015457147   -4.37002165901177
H           2.29695075655112   -7.94315726208793   -4.03581680170466
H          -0.48307688954382   -7.98807389084185   -1.06288257458319
H          -0.82108738383173   -8.36079050919281    0.63320423022642
H           1.63635996605272   -9.29375530860555   -0.93849912417761
H           0.24748981499255  -10.27133563836749   -0.46994284316512
H           1.33500660287164   -9.64527809957773    0.76527958093662
H           1.22291675342888   -7.83173539512570    2.07957673965963
H           2.16389402440493   -4.97850603594327    1.40597887784093
H           4.73918108938870   -5.64560596830736    7.81353219720497
H           7.30022346278864   -1.39203460584241    8.02208695630735
H           8.07471922369494    1.99825560643813    3.54767320696179
H           5.40036775645550   -0.00112686906828    7.94980373312902
H           7.94707893658935    3.69344157564574    5.75673285427501
