64
 SCF done       -120.503158737180          0.000519996577
C           0.54746398635854   -1.84580391285808   -3.03463190122265
O           1.58591156241896   -1.06145468755039   -3.31330911891816
C           2.23032580819734   -0.80916699886052   -2.14982894482910
C           1.59735114960772   -1.44040568939160   -1.10668505195083
C           0.49477645899330   -2.11997312966585   -1.68724590304395
C          -0.45718069315864   -2.91172502481054   -1.02159270825853
N          -1.22837522287027   -3.55532409569348   -0.47127562006723
C           3.39572165113323    0.01389922971981   -2.14645448774488
S           4.06370353065413    0.72744352671559   -3.59987898973102
C           5.28644610161704    1.41039391659179   -2.52842324272922
N           5.10224588189377    1.07219539123256   -1.28300794941728
N           4.06813074895440    0.30787383321720   -1.07096287820999
C           6.34170559949267    2.23016711826056   -3.01176601818484
C           7.26765729242841    2.75925677734360   -2.17524403287548
C           8.33408211701492    3.57830730667404   -2.62608116935893
N           9.28792933639140    4.11368374197104   -1.79096518391976
C           9.40919959492419    3.89531564125474   -0.36982937563987
C          10.01138725896683    2.52862192815604   -0.05347218302019
C          10.22410315651520    4.89223224802152   -2.49113160751616
O          11.15609444818300    5.46231545700062   -1.95745717466866
C           9.78775143032854    4.82456688212109   -3.86785175964935
C           8.62770903550817    4.00955680311948   -3.91707726540195
C           8.18592450186062    3.94942652050265   -5.29301716089735
O           7.24949772915466    3.38456640359783   -5.82391487850458
N           9.11100554315495    4.74353977078062   -5.99034670229717
C           9.03246453699908    4.90312083155656   -7.42252273495457
C          10.02478096566673    4.00024525674109   -8.15087254501915
C          10.07270408870547    5.26803897367780   -5.15742480328360
C          11.12224780597395    6.11219377187187   -5.60041391601320
C          12.05839305498712    6.61667442393447   -4.75896427828862
C          13.10167530461562    7.46240353109910   -5.21901710298909
S          14.30616652613927    8.14072717392503   -4.12992372111701
C          14.98476000229030    8.89775456520177   -5.56625665795363
N          14.31464899722519    8.60649750215189   -6.64710717599686
N          13.29205659357541    7.82736057543237   -6.45850692351501
C          16.13948282228908    9.72764013755723   -5.51072107409754
C          16.67796128977616   10.30030825891048   -6.60837383935583
C          17.83328554349511   11.13254269568840   -6.57285281666826
O          18.46951349590387   11.40839820719835   -5.41474043145403
C          19.50934860463814   12.20742140542115   -5.69717542452591
C          19.58199796168697   12.47293684614415   -7.02965370723905
C          18.49182127990346   11.77663205471777   -7.61712878846305
C          18.14682521593480   11.74134354811738   -8.97437100179493
N          17.87792862796617   11.72111098544887  -10.08884734373782
H          -0.08640189420358   -2.15260782791865   -3.84354767252240
H           1.88547105934588   -1.41732776816379   -0.07694041602833
H           6.38065356876382    2.41697782150751   -4.07577711854431
H           7.18462013103762    2.54768390597539   -1.11940420166956
H           8.42946135716447    4.00695328023747    0.10241214338149
H          10.07196251299552    4.68303791840526   -0.00034256500567
H           9.38549214178692    1.72738536815943   -0.43951769690643
H          10.10643251306310    2.41026105233783    1.02215001417806
H          10.99874902062083    2.44490286290706   -0.50111177426586
H           9.19857610297529    5.95186482472816   -7.68260327367060
H           8.01158646272545    4.62667032176870   -7.70102238154937
H          11.04750584695016    4.23238090804300   -7.86281007521355
H           9.92465347701416    4.13654761220223   -9.22394716501593
H           9.82404922300314    2.95857179682517   -7.91230390218643
H          11.17964780494508    6.36938238760744   -6.64777964292360
H          12.03657083131064    6.38730642113904   -3.70265064404677
H          16.58077908809798    9.88534104098596   -4.53720910277851
H          16.23124392481107   10.13589564102947   -7.57794373066024
H          20.12337937533575   12.52139450741732   -4.87610928733770
H          20.30341672675523   13.07703822257070   -7.53969591269487
