77
 SCF done       -157.621099618856          0.000978208118
C           3.96034693428075    0.29787414775493    0.23633045493503
C           3.35616200159054    0.35082894277970   -0.94678246719624
C           2.32322284340946    1.35894454799828   -1.09579190380517
C           2.10933621369041    2.11331954305838   -0.00755074359736
S           3.24408594651696    1.56430203817927    1.29405272213498
O           2.51492266921922    0.98765219464975    2.38618121891204
O           4.19431411560890    2.59611088376676    1.59446793026385
C           1.22414167922809    3.18030438404858    0.25582804251847
S           1.21694853706303    3.95825025602454    1.82428721090467
C          -0.04055348184343    4.98507627732002    1.14824954048374
N          -0.32677705060445    4.68182752367068   -0.09452359351745
N           0.36215719475467    3.69713812408307   -0.58222973175205
C          -0.65147132236653    6.03577838781251    1.88563802634900
C          -1.60355583780880    6.83259168005920    1.34017767737023
C          -2.20103054040442    7.90741483252231    2.04757354691546
N          -3.14307856061401    8.74856475720881    1.50505835774716
C          -3.64899851709169    8.71942377408420    0.15353690583341
C          -2.66321278514103    9.34130087897903   -0.83207738173203
C          -3.55359469322912    9.73728768726447    2.41532638080577
O          -4.39793995687601   10.57358726182742    2.16668148868561
C          -2.78232045157966    9.46442373197915    3.61067912774033
C          -1.97591579510259    8.32745631342115    3.35767087564829
C          -1.22081789805659    8.04303879091721    4.55984203180811
O          -0.40606138067968    7.18274228517691    4.82390438512021
N          -1.61974220827276    9.04289838289145    5.46489185179559
C          -1.12829929661319    9.06343283736442    6.82231768563459
C          -2.16182964312194    8.52640221654284    7.80911783962280
C          -2.53969029381836    9.89794477985615    4.91122847281614
C          -3.07748636236753   11.02816012204387    5.58705972855729
C          -3.90638683546188   11.89707043179179    4.96968436767680
C          -4.49956273126217   13.05686862816751    5.57768663296005
C          -4.61837045828076   14.27018287842546    4.86608335719536
C          -3.98025201352106   14.47630422944820    3.55032435170269
O          -3.24702178801528   13.74313361126612    2.96129219692253
S          -4.40964748829152   16.11556790307856    2.94684965392797
C          -5.30045585354963   16.54062536112357    4.43873070594388
O          -5.80851003333889   17.61039911207816    4.60391796188058
C          -5.27393994941485   15.38973135825249    5.36916535430252
C          -5.87827449271203   15.40674695183425    6.64343618484078
C          -5.69817203191227   14.22458300406534    7.37781559493919
C          -5.04375951178332   13.10220206760265    6.87325373525721
C          -5.10889539501536   12.05524071175771    7.92424892089832
O          -4.75434928065790   10.91681178370974    7.91263425111925
O          -5.69562395088214   12.62113386402912    9.02556988025373
C          -6.04375163345463   13.93083240101662    8.79318662319631
O          -6.48088891923351   14.63333406630940    9.64757611800012
C          -6.61174078443732   16.55302010204191    7.12380884917271
C          -7.76224345460915   16.47937235958564    7.82115925460444
C          -8.52332733940303   17.60445613851412    8.23981629677667
C          -8.25710677745500   18.91662709987991    8.32898164572637
C          -9.34882880986727   19.74742363020462    8.80285151140878
C         -10.48409451044869   19.11740445054651    9.08572038409102
S         -10.24719125806193   17.36103434369190    8.76039091194152
O         -11.03937066951237   16.93949435514375    7.63909492360586
O         -10.33434975273892   16.58688193457734    9.96347306754278
H           4.74005357380357   -0.35482372679826    0.56890230621384
H           3.58766712560762   -0.29719160819228   -1.77799454008993
H           1.78413686571237    1.47290071365599   -2.02114286129408
H          -0.31707977846112    6.18451734356812    2.90270695109122
H          -1.90967744229969    6.64448713629418    0.32184913883079
H          -4.57380144553841    9.30307969882451    0.16501696225412
H          -3.88379104294825    7.68928554329493   -0.12668345244791
H          -2.46576857464400   10.37437729337107   -0.55668735900416
H          -3.08487752035799    9.32298024809425   -1.83299053453078
H          -1.72194137574999    8.79658076202861   -0.83876567957928
H          -0.82637186132911   10.08059089173664    7.08736691730006
H          -0.24272899600748    8.42153382919537    6.82870025565333
H          -3.06292461742243    9.13493841912087    7.81113620772580
H          -1.74085194286365    8.52242006626833    8.81076490977742
H          -2.43147419488483    7.50718231337393    7.54387611329057
H          -2.76272348318276   11.19621179978412    6.60522335011890
H          -4.12926135867915   11.75402497640396    3.91827656354855
H          -6.24230716495402   17.51801309453214    6.80869783406518
H          -8.21371459033595   15.52501141178296    8.05323769570235
H          -7.30682244434026   19.36586300917593    8.08929235350307
H          -9.19975737975892   20.81148686305681    8.90347222602506
H         -11.41041868787496   19.52063956004248    9.43891622498471
