78
 SCF done       -149.232365246510          0.000585433142
C          -0.61870798498577   -1.47433731137816    4.62478836483683
C          -0.19072210196451   -1.24648403103300    3.38515502196080
C          -0.39453059254349    0.09266954464633    2.87693140433207
C          -0.99812330939175    0.94996832229847    3.72324187406275
S          -1.33811263466243    0.04745277155624    5.26245684710603
O          -2.75092416249381   -0.09839535811822    5.47189643449924
O          -0.55531860042610    0.57258800420163    6.34549836783515
C          -1.35898267182712    2.30868482297006    3.59812591563037
C          -1.17645347985674    3.16062038209995    2.53050848673609
C          -1.66574671534901    4.45129140565840    2.88429627801931
C          -2.20825740811320    4.32877365677713    4.25179644883225
C          -2.02193871241047    3.04895008429155    4.66508936438120
C          -2.89607611075292    5.31700378953184    4.97007825451236
N          -3.50224645403921    6.08705949283778    5.56759938586852
C          -1.61620326186673    5.59855208850566    2.12175757026744
C          -1.92466279492368    6.92196035566929    2.52929851506093
C          -1.74713380496511    7.78471863444361    1.45822280936461
C          -1.31909799091861    6.98787296184408    0.31719074330784
C          -1.21275998805808    5.69046955364419    0.70756433682366
C          -0.81557541618573    4.63759791828679   -0.12433614819284
N          -0.48307925378467    3.79705470011069   -0.83331121320597
C          -1.92830540895265    9.18590934564450    1.54059271470583
N          -2.01357509573816   10.07693526669854    0.50175863995027
C          -2.00353412476113    9.80011521833981   -0.90965331721027
C          -2.20608050072004   11.39854019457960    0.95388748595697
O          -2.32831311542598   12.34645405786506    0.20814773865828
C          -2.21487190368195   11.28677012204186    2.39619615984672
C          -2.05261997043799    9.92933910667246    2.72627227702921
C          -2.01081164915035    9.82000569236827    4.17423657341064
O          -1.84356419974702    8.88441401364705    4.92121325732987
N          -2.19258762783238   11.14461581417390    4.62047993582018
C          -2.23841107821689   11.45644982654427    6.02341672947581
C          -2.30809979099350   12.03334059880295    3.58337805064462
C          -2.47591266555725   13.41971455253937    3.76057850866139
C          -2.54077317929645   14.29770643211927    2.71463929228893
C          -2.68583586553884   15.69476552999752    2.84689938534881
C          -2.67768149536240   16.60227749982375    1.80139772154843
C          -2.82548305852182   17.91839270613681    2.31590408120867
C          -2.94708295685935   17.76921242208522    3.78076238073026
C          -2.85665297056409   16.44901057695191    4.08285936411051
C          -3.12415696564740   18.78953259958239    4.72246071869694
N          -3.27275129741895   19.59579283587189    5.52727484559185
C          -2.83263005755987   19.10673813153413    1.61870731683764
C          -2.96878156134943   20.42095817740912    2.15573925382189
C          -2.90101700858937   21.33307024248122    1.12584057967259
C          -2.71883520461954   20.60167436504404   -0.12070320648069
C          -2.67914651952734   19.27346126226411    0.15997262414804
C          -2.51344407830743   18.25282163585441   -0.78438369937086
N          -2.37672893548228   17.43349664382947   -1.57708666393947
C          -2.97752247119738   22.74222517895731    1.17795807737347
C          -3.15079350066426   23.60245390570875    2.19975685328834
C          -3.16830696672078   25.00395632027617    1.83915214943644
C          -3.01115002847298   25.27871101313965    0.54642750821431
S          -2.82360794386600   23.72473743619631   -0.34182583251837
O          -1.50478067344396   23.60336784302618   -0.89657610569603
O          -3.93724707938018   23.49245347363180   -1.21795079975497
H          -0.57568335107403   -2.37622859400301    5.19891649496005
H           0.28586012278430   -1.98555134695512    2.75948030336480
H          -0.07266548224575    0.35159887977597    1.88081178171882
H          -0.71063083147438    2.91651196325443    1.59665660182275
H          -2.30831467179670    2.61412952000504    5.60388588532714
H          -2.22042565569952    7.20323231382550    3.52074036742969
H          -1.08692440410187    7.35491230414214   -0.66306807380788
H          -2.71451083592529    9.01140127335393   -1.15711530895677
H          -1.00385690950384    9.52547935860859   -1.25184244942822
H          -2.29776456969745   10.72341457889804   -1.41100844225415
H          -2.11597616971356   10.51473614382085    6.55908992897168
H          -3.19889660896084   11.89861590622700    6.29405661008884
H          -1.42991717018620   12.13509236483132    6.30162556225043
H          -2.54022917736740   13.78149720030537    4.77664207902418
H          -2.46431364186065   13.91920475936346    1.70337747077692
H          -2.56745111551371   16.35334709057937    0.76418836067377
H          -2.91048543263286   16.02940265147003    5.07005124249783
H          -3.09958374024191   20.64832689011984    3.19469714952918
H          -2.63369511734471   21.07146313999521   -1.08225071398787
H          -3.27250949241919   23.30404363238157    3.22892016424009
H          -3.30365606024780   25.74870727077511    2.60852185495674
H          -2.99018928572867   26.22918086853783    0.05551346986274
