96
 SCF done       -175.242041587239          0.000420053442
C          -3.86327343190266    0.53871689291473   -0.50915041069995
S          -3.67371992949425   -1.06771666614096    0.09267154514568
C          -3.72053953519347    0.57029464282844   -1.85851353468705
C          -3.76069590196089    1.55948641965142   -2.95390244859385
O          -3.95699047084972    2.74672980457465   -2.92774507411470
N          -3.51750441170018    0.81661730982298   -4.10521817285067
C          -3.47164569863157    1.40339994093985   -5.42162786558997
C          -3.32542747060540   -0.54498950222754   -3.88030637883357
O          -3.10623949008070   -1.36243285944380   -4.73927939228383
C          -3.45629805883857   -0.70289061033972   -2.42747398621570
C          -3.39484091012905   -1.72700850174569   -1.51459493950050
C          -3.15134966255938   -3.09957142460038   -1.77887445154208
C          -3.12087182085966   -4.06287226476569   -0.83080289347145
C          -2.88170052001977   -5.44128676904007   -1.08037170069050
S          -2.91086267264523   -6.56792752380304    0.24802683738412
C          -2.56423696082354   -7.91392396465516   -0.80005034847763
C          -2.43411091148408   -7.46977233058221   -2.12068674240563
C          -2.61439395551138   -6.08818280303627   -2.26990008501855
C          -2.15374963350899   -8.32249210231709   -3.20507357042722
N          -1.92642660905184   -8.97985298113268   -4.11600781439792
C          -2.44868369601225   -9.24043178038515   -0.33768934683730
C          -2.62227220546316   -9.59687059686171    0.96632334591622
C          -2.52184070741834  -10.92672807776132    1.42519145595946
N          -2.71217987731096  -11.30427196289368    2.73377120105103
C          -2.96540384706921  -10.43401118180527    3.85639351903223
C          -1.69426893474162   -9.73303343714590    4.32955666345919
C          -2.57347733490225  -12.69246099385535    2.90869027023994
O          -2.70130453531352  -13.24742342368928    3.98056999117388
C          -2.27801458812326  -13.19251501798229    1.58240640322017
C          -2.24997727390087  -12.09144138470869    0.70021327770984
C          -1.95019782022643  -12.58581011583167   -0.62664470735255
O          -1.82842792506149  -12.02141891873233   -1.69468084818610
N          -1.81707548640309  -13.97253666065919   -0.45676320257072
C          -1.47584628720665  -14.82689864113964   -1.56883906262139
C           0.00722868536899  -15.18921762965445   -1.57448073390180
C          -2.00734726935291  -14.35716302708897    0.85200831509291
C          -1.94228646704311  -15.69287285164960    1.29544254967413
C          -2.18783034060385  -16.05772299370304    2.58889226932376
C          -2.14059318966617  -17.38410674426947    3.06915771043374
C          -2.47873642623597  -17.78783079156799    4.34934800718834
C          -2.31022881142853  -19.19244112293048    4.46254890422578
C          -1.81804636506573  -19.64995136107859    3.14748223872272
C          -1.73352027069593  -18.57084710867471    2.32784412867847
C          -1.49653980497741  -20.95861906595955    2.77094489631953
N          -1.21978294808444  -22.01650663442136    2.41791026437064
C          -2.56385004045155  -19.99406647226728    5.55489967192806
C          -2.35982046379678  -21.39926336580678    5.66088230685972
C          -2.76055923275091  -21.81991173131672    6.90937244921665
C          -3.24375704697666  -20.66129120411544    7.64672211381862
C          -3.12242687209607  -19.56671529839292    6.85017034023661
C          -3.49012399974932  -18.26701524589219    7.21671571795966
N          -3.80071565328962  -17.21144423517344    7.54628500678618
C          -2.71117437570731  -23.14947477595247    7.40152851396815
S          -2.01217483413109  -24.41690732166675    6.41135244181088
C          -3.13479288799458  -23.69648491342549    8.59534707602390
C          -3.79313822377318  -23.23898142086825    9.82896748510843
O          -4.16969227255462  -22.14339469736849   10.16904606009194
N          -3.92306877796810  -24.38220102679126   10.60748062102899
C          -4.53219591619129  -24.37742559231950   11.91427377095725
C          -3.41784610094378  -25.53207778561977   10.01666470021670
O          -3.43782876919442  -26.62215299080634   10.53517516579529
C          -2.90595637501015  -25.09194410485929    8.70845287135924
C          -2.29725807664274  -25.65478054235381    7.60931270733118
C          -1.88731890573156  -26.99857929392753    7.31363255052736
C          -2.03980373731886  -28.03605933796599    8.13621441371766
H          -4.06474388218426    1.34155715706048    0.17152021190699
H          -3.75291240003930    2.45085958827877   -5.32947558533439
H          -4.16522937965513    0.88286086275365   -6.08245763616673
H          -2.46508079021235    1.32413479036768   -5.83509660651876
H          -2.99067559986665   -3.33240431768094   -2.82246476601257
H          -3.29257149631372   -3.78664293404305    0.20233894212328
H          -2.54856974971510   -5.58797250688797   -3.21911974648411
H          -2.21395815238325   -9.99307313818329   -1.08129558473604
H          -2.86009960452058   -8.82793504371667    1.68981936246858
H          -3.34802885166387  -11.07593602618645    4.65479897075139
H          -3.73641916340186   -9.70592996792071    3.58905155178360
H          -0.95559289782195  -10.47086972871632    4.63262207731545
H          -1.92039232398949   -9.09851906486856    5.18183895558732
H          -1.26715522970243   -9.11975711319683    3.53897738450545
H          -1.71531484581351  -14.25703527326178   -2.47103818122820
H          -2.09911306429405  -15.72526594316098   -1.54468919602022
H           0.60796231974757  -14.28671334082299   -1.65451686831576
H           0.22608850685396  -15.82774550749012   -2.42576234663701
H           0.28809748352218  -15.71125032567537   -0.66219954335491
H          -1.70291491114533  -16.44879088445897    0.56189457151956
H          -2.44732385292374  -15.29563818924822    3.31216510726234
H          -2.81983143699606  -17.14143058723993    5.13408418475787
H          -1.40812048845618  -18.58946588625961    1.30430085106536
H          -1.95620192321787  -22.02493908868384    4.88866540898857
H          -3.62908406961344  -20.69303617969916    8.64813470682728
H          -4.89050751407091  -23.36837887421044   12.10986766487822
H          -3.80153429608700  -24.66709357627462   12.67067701115229
H          -5.36306427554683  -25.08322154396767   11.93877864322281
H          -1.42552764684252  -27.12523406793100    6.34266387499800
H          -2.49611149061389  -27.93127902402719    9.10570631376827
H          -1.70720462800461  -29.01910609015602    7.85142819804460
