76
 SCF done       -142.228297424548          0.000938219296
C         -14.25465376119717   -7.46316694983102   -3.34118182423510
S         -12.56964838546288   -7.35492544908793   -3.13307451539651
C         -12.47696689379270   -5.81663213004180   -3.91225424691464
C         -13.73679307030094   -5.41132059782979   -4.34351284484458
C         -14.76291218517578   -6.36703049120369   -4.00101752884470
C         -16.10456427357588   -6.12059462019414   -4.36957000134482
C         -16.41474357684642   -4.98003261836534   -5.05112540571386
N         -17.76742269685425   -4.83962849614923   -5.55663197385853
O         -18.66192638309749   -5.21629688035098   -4.83923006078009
O         -17.88019104180694   -4.43284556674169   -6.68846249447324
C         -15.40299204146319   -4.03808762052003   -5.39506250215987
N         -15.74821188373622   -2.75891682411437   -5.97947693929422
O         -16.78491081934157   -2.25849019738735   -5.61028094364065
O         -14.94221495892704   -2.26007013174713   -6.72830051251329
C         -14.09329329945341   -4.25487915752266   -5.06677893766761
C         -11.20961418041571   -5.12629505138300   -4.00213501063100
C         -10.01575858607325   -5.83148182222660   -4.16320010600081
C          -8.81175538755440   -5.14262177252057   -4.23249020831009
C          -8.86524205089244   -3.74788372318232   -4.14668286000127
N          -9.98289375085240   -3.07629763184167   -3.95868315479349
C         -11.11894838094459   -3.73343346422562   -3.87457779889437
C          -7.52295138420454   -5.82976843477666   -4.34874761535300
C          -6.50758997004051   -5.32830890170559   -5.15230281100185
C          -5.26260740846678   -5.95755080742081   -5.17391289281260
C          -5.09595213027503   -7.06875114533210   -4.33458429123259
N          -6.06241229752343   -7.56237828990973   -3.59275914794084
C          -7.24457834609277   -6.97875288516862   -3.60458362901900
C          -4.17023934344516   -5.39757974167027   -5.93277463499850
S          -4.05381684086467   -3.67313498823611   -6.06150178491469
C          -2.49540859332949   -3.72864566824629   -6.82907563351243
C          -2.06829949807759   -5.05865781599535   -6.94298384478056
C          -3.06007709821556   -6.00261120891524   -6.50456167525945
C          -2.85253102175951   -7.38988383696525   -6.76494393237417
C          -3.90431948819709   -8.32388069932654   -6.65109810109579
N          -4.74451461761695   -9.10526760229734   -6.64602569812424
C          -1.63524398044284   -7.81834715845616   -7.25003582965112
C          -0.58991317488966   -6.91308593367446   -7.45505299688092
C          -0.78972379137002   -5.55210573361787   -7.31943007533867
C           0.35150230187773   -4.72623489484154   -7.42042620462508
N           1.33932750527713   -4.14259155383446   -7.42499085850355
C          -1.93332892301603   -2.54628003933479   -7.36840050506055
S          -1.01663772204682   -2.58263312877700   -8.84110695925487
C          -0.85015117433024   -0.86664100529929   -8.90060833991540
C          -1.54238340304957   -0.26567692085210   -7.84606291512208
C          -2.15357416074982   -1.21678250666916   -6.97139032905797
C          -2.85927524616717   -0.75975843750400   -5.84773306766544
C          -3.03871750009125    0.58502230947358   -5.62474933705021
C          -3.79542686370682    1.03640835153545   -4.45907197061528
C          -4.82888425173726    0.38681444808347   -3.93948643415296
C          -2.49715072412046    1.53550900294547   -6.54214372714449
C          -2.75445344791645    2.99753488128964   -6.34210032724661
C          -1.76160645090811    1.10840625569400   -7.61234315609109
C          -0.05350945242192   -0.31283791296641   -9.95891829688478
C           0.59003617914681    0.85390825574263   -9.93686494481843
H         -14.79107232027648   -8.31301028512494   -2.96997920170884
H         -16.87512018038912   -6.84076778712111   -4.14081449809005
H         -13.35120904053006   -3.53009734249140   -5.36360287894726
H         -10.03575096616804   -6.90809719239317   -4.26089956237470
H          -7.96409160553764   -3.15248518086495   -4.20166067994698
H         -11.99162572552731   -3.13315754220840   -3.66061727009621
H          -6.67891070835412   -4.46045255779224   -5.77438516584503
H          -4.13517878407268   -7.55430820487858   -4.23416615560283
H          -7.99299770781975   -7.42178614375438   -2.96133193278294
H          -1.48215575745359   -8.86760716961428   -7.45266272561772
H           0.38663635822814   -7.27820615053655   -7.73445057085666
H          -3.25173031630093   -1.46876471521955   -5.13626582398750
H          -3.47766209111645    1.97068895909866   -4.01688500535145
H          -5.20239717481858   -0.52898528862758   -4.36690322937715
H          -5.35026567633011    0.75478648351624   -3.07272927724945
H          -2.24535210578362    3.35846489463237   -5.44834925884573
H          -3.82003019256005    3.18586612255621   -6.22163489455285
H          -2.39301696070400    3.56899366154239   -7.19324269363126
H          -1.37190773472375    1.82804721365477   -8.31426684622152
H           0.05556895403841   -0.95877587665071  -10.82179396591650
H           0.58431723126808    1.50347011517987   -9.08017931558982
H           1.17620243145200    1.17548893061554  -10.77960720961370
