109
 SCF done       -229.499747971638          0.000942591782
C          -2.03580992963951   -0.89673873159565   -8.22408041106170
S          -0.95958236288944   -2.20826876582360   -8.20451430964168
C          -1.95754310922699   -3.11584495285956   -7.11933791809782
C          -3.15557692009517   -2.41811229153909   -6.85578282746291
C          -3.18896116136442   -1.13362972412107   -7.49638771415836
C          -4.32818286987675   -0.31157788422288   -7.36406269585280
C          -5.39818072386384   -0.74857019519684   -6.63245477884208
N          -6.61175345725598    0.05102677565102   -6.67169951552281
O          -6.48515409891625    1.24416614803060   -6.55163508955086
O          -7.63523275191467   -0.54290854959566   -6.91148614079007
C          -5.37048268104448   -2.02466107429774   -6.00943645052418
N          -6.40240575292292   -2.44405269313001   -5.09501084382005
O          -7.03421978170404   -1.57642453901836   -4.53926962170962
O          -6.50892396559628   -3.63532381443478   -4.88480259711461
C          -4.28211781544361   -2.85027159121067   -6.14755383555298
C          -1.58452270824544   -4.37699429180150   -6.58958697241417
C          -0.92155913245420   -5.43747662094063   -7.20409622652238
N          -0.29853757378968   -5.44164762530614   -8.44883771509676
O          -0.03323158086898   -6.51104364461034   -8.96280594366977
O          -0.03424938205898   -4.35390153507600   -8.96368790599684
C          -1.03449879564544   -6.60922643767048   -6.38182360281686
C          -1.73740361492684   -6.29306910840904   -5.26319695129709
C          -2.05384929742058   -4.89595857322838   -5.29913145333579
C          -2.44388516715840   -4.12236159966950   -4.21534470174364
C          -2.00293987475976   -2.79843475411508   -3.93817708869916
C          -2.32829246304406   -2.48409097727149   -2.64625957990876
C          -3.07499127332167   -3.55663763655613   -2.08085406859269
N          -3.60475447447498   -3.51784292960719   -0.78088648877591
O          -3.40852635750343   -2.50969972496499   -0.12654972811724
O          -4.21417421315876   -4.49398369390072   -0.36728543234117
C          -3.21603347300937   -4.57083803492148   -3.04090853846925
C          -4.14657199412304   -5.61787013316893   -2.99864751716052
C          -4.59028502997690   -6.28585830584314   -4.11323513833624
C          -5.54432747748743   -7.30213281005423   -4.23744142639959
N          -6.26417798677353   -8.00749993887275   -3.30278383982165
C          -6.32006102381121   -7.78323411129279   -1.87504197151013
C          -7.19731485626492   -6.58187820084342   -1.53298544193148
C          -7.08406107195318   -8.96976071558669   -3.89980492950723
O          -7.82331096881881   -9.71564090598240   -3.28184969784625
C          -6.82829108549455   -8.85197481369775   -5.32544266016613
C          -5.89520738169099   -7.82547195525046   -5.49570121105024
C          -5.62102891459981   -7.67667921432479   -6.91115933936390
O          -4.89129157730322   -6.92779106278748   -7.52071044844977
N          -6.44211352768879   -8.65361448088949   -7.51829031137804
C          -6.43284720680687   -8.86183092742229   -8.94728740731726
C          -5.53112135299252  -10.02852409098766   -9.34190530134684
C          -7.15248227831849   -9.37070818034617   -6.59574397977740
C          -8.01962126164843  -10.44467192161227   -6.88634877331681
C          -8.63402415567941  -11.10889757524714   -5.86812506350721
C          -9.48833219571414  -12.22117620477472   -5.98483672528560
S         -10.05993980028257  -12.83240638913371   -7.50419467759363
C         -11.02800562509696  -14.04475649961446   -6.72432685220299
C         -10.89722036066712  -13.96584060366188   -5.34047512712147
C         -10.01462949801738  -12.95814434516781   -4.92678610298691
C          -9.61312324854930  -12.74670697199446   -3.50385652398809
N          -8.11954938357733  -12.86699514522440   -3.32720050766445
O          -7.71364366240552  -12.67496170302971   -2.21469764770376
O          -7.45585201440118  -13.18634723876137   -4.27984776976110
C         -10.23545816232072  -13.79639352276463   -2.57385385974282
C         -11.67644855173268  -14.06678185572622   -2.97965715983440
C         -11.70019224190257  -14.75417591155793   -4.35280668464344
N         -13.13845951744481  -14.80916536490830   -4.74735209203846
O         -13.75901254966386  -15.76988382407979   -4.36983649610224
O         -13.58442197931642  -13.87769670353956   -5.36628590280012
C         -11.76776794524557  -14.98700789000591   -7.49670104528748
S         -12.07214341277580  -16.59210015710313   -6.90894201248008
C         -12.87603316951274  -17.06605644976733   -8.32477163637079
C         -12.93082978348495  -16.04864457736779   -9.25227396877804
C         -12.28907495779520  -14.84567638540046   -8.78844992596568
C         -12.27216836207124  -13.71819938924663   -9.62842289669695
C         -12.85094283099735  -13.78328228047093  -10.86746378864244
N         -12.64123975681845  -12.66579618140611  -11.76507541581480
O         -12.51905646275370  -11.57299895219825  -11.26502878793922
O         -12.52718033663503  -12.92973352884911  -12.93881074173879
C         -13.50949894704770  -14.96309672003264  -11.31160439637037
N         -14.29083563284248  -14.97373379377135  -12.53911582983746
O         -14.96094642522101  -13.99408439561874  -12.75472901218559
O         -14.26364801686457  -15.98617947229912  -13.19298215052297
C         -13.54514871016957  -16.07702286695437  -10.52473644503372
H          -1.80874023153540   -0.01653545865561   -8.79270714590630
H          -4.37064089422609    0.64419329522042   -7.86351505971968
H          -4.32830070398648   -3.82480843503383   -5.69218437857198
H          -0.60210360280234   -7.55605846636138   -6.64238225803847
H          -1.93150909546024   -6.93556796254700   -4.42676018634803
H          -1.39505319935963   -2.20799861992055   -4.59597837547770
H          -2.07878378958879   -1.58599354623625   -2.11322434122036
H          -4.59336931054503   -5.79409320880103   -2.03165362202173
H          -4.19882491262732   -5.99345298002052   -5.07931743042075
H          -5.30642674955658   -7.65943276882813   -1.48879353873278
H          -6.74815869748185   -8.69127009698138   -1.44101470456205
H          -6.90003228849878   -5.70419225189137   -2.10176243763112
H          -7.11065987796963   -6.35465458908256   -0.47482302375500
H          -8.23734021665954   -6.80007440489699   -1.76246326395374
H          -6.05054289174820   -7.93750042249213   -9.38819628847236
H          -7.45617059933407   -9.02259996997523   -9.29572662388670
H          -4.50637193131611   -9.82543358190629   -9.04126686705244
H          -5.55549366745446  -10.16053530417858  -10.41966724932360
H          -5.85554165562968  -10.95208720664729   -8.86747308064040
H          -8.16781451216059  -10.74978843553166   -7.91206879873006
H          -8.45726855733804  -10.75827478931759   -4.86070178429184
H          -9.86173030704807  -11.73427305653689   -3.16526966948887
H         -10.18702685501114  -13.44466027474675   -1.54397204618677
H          -9.66572167410037  -14.72717696692156   -2.63942219071844
H         -12.22542232191642  -13.12382394624455   -3.03890351881252
H         -12.16295869500138  -14.70873608465779   -2.24461340722360
H         -11.35672213837210  -15.79029343929900   -4.26091523563826
H         -13.26929739551539  -18.05894502065679   -8.41153706714254
H         -11.79857857930440  -12.79704785603949   -9.32813394041469
H         -14.06039518996732  -16.96342041098637  -10.86150867671039
