94
 SCF done       -173.491716264892          0.000582384237
C           5.12506148325047    1.10499359101378    8.63850710722538
S           6.81448769051524    0.80059243929313    8.85928148088387
C           6.58786392794651   -0.48999428159526    7.67556933519447
N           5.35923410776765   -0.55915871278882    7.25400441789250
N           4.55238210928380    0.32423469427673    7.78995786240140
C           7.66222042975026   -1.32356827422168    7.25424548497394
C           7.45087598172116   -2.33346678405787    6.37344096631621
C           8.38966721779479   -3.25999885151552    5.84669840568825
C           9.59579498689752   -3.76102957638001    6.32637085818899
N          10.37442538847747   -3.39804254901330    7.44065546928025
O          10.24451976747762   -2.28978592028737    7.93522862840353
O          11.16976993680885   -4.22764036878322    7.84783494988460
C           9.99685874623474   -4.88526000606203    5.51929070603039
C           9.06396040279318   -5.10141042669828    4.55927939194503
C           8.04410104726706   -4.10307705597298    4.68138538695395
C           7.02229042954411   -3.86795900278896    3.78160256985181
C           6.42947649135011   -2.60798833940937    3.47129037194133
C           5.66236071500139   -2.75370640542667    2.35387752284164
C           5.68284989504413   -4.12075130694339    1.93228158044443
N           4.93374356674598   -4.51537409839787    0.81196735395862
O           4.11059231344490   -3.72311444497450    0.38739397735387
O           5.14632902688311   -5.60381883807152    0.29416483122846
C           6.48353281310264   -4.85800478807277    2.82032834722436
C           6.63825037069353   -6.23018925514338    3.07287542425928
C           6.30937419239529   -7.29178838189404    2.26457877654608
C           6.52271687848065   -8.61702560818259    2.66854666446392
N           6.26104682048593   -9.70617203166046    1.87482517744145
C           5.74718786797767   -9.67974387455913    0.52372692149500
C           6.83800311569526   -9.35347480636613   -0.49180224894467
C           6.60083907109780  -10.91340557860513    2.49897920830565
O           6.46005352657503  -12.00412022434794    1.98848599114807
C           7.10368454734590  -10.51413206307037    3.80381536876356
C           7.03744682294806   -9.11603905592102    3.88493571188990
C           7.52638283447346   -8.71950184449326    5.19285721139138
O           7.65463548068822   -7.63141619075847    5.71699926581674
N           7.87154255256734   -9.92756661081591    5.81646540981438
C           8.36241134886252   -9.94934893374019    7.17441122440083
C           7.26702077743129  -10.33082266322416    8.16672653579623
C           7.62864042381985  -11.01520310308700    5.01128419264227
C           7.90573905298045  -12.34294713010008    5.37447552364061
C           7.68054231844027  -13.40181929493835    4.53472481963762
C           7.96840482630192  -14.74559193849757    4.84109317860669
C           7.78389509063016  -15.81659231835788    3.97736687097762
C           8.19067172758020  -17.01428896559133    4.61711943998437
C           8.64442456729816  -16.62106728102562    5.96474308424348
C           8.51143843930229  -15.27409844814035    6.08366855885073
C           9.13518710643540  -17.46329444389904    6.96894629642635
N           9.54362363666297  -18.12099143608392    7.81774558341876
C           8.18085303118790  -18.29621216737154    4.10439942225473
C           8.57856141336580  -19.49205552950479    4.75691162046539
C           8.41490673238230  -20.55902389982848    3.89588869793528
C           7.89533998184096  -20.03581957780099    2.63757295602647
C           7.74973136863685  -18.69132027572907    2.74641961649748
C           7.27936247424071  -17.84949145790910    1.73224534119579
N           6.89183756492024  -17.19361785850715    0.87279288703386
C           8.67643652426543  -21.93597876408228    4.11152334876967
C           9.15488423372889  -22.45890953896419    5.26869453091422
C           9.39543155237299  -23.84923757254148    5.42437391187399
S          10.01513130834446  -24.53255631793698    6.92695172231760
C           9.93030775678852  -26.08122813603478    6.10148383264976
N           9.48853026889473  -25.97172187677824    4.88312944985337
N           9.19643380642750  -24.75868374326582    4.51148757374810
C          10.30478334287825  -27.33208224793663    6.69532680312072
C          10.75656690894265  -27.46693425803914    7.93886976705589
H           4.61111582263346    1.88169091783797    9.16737065567638
H           8.63959531769493   -1.10669251802935    7.65507958433582
H           6.43618013490471   -2.45172843162221    6.01571970960235
H          10.90821494373444   -5.42807552282657    5.68423540209653
H           9.13436881215467   -5.81555314053995    3.76305721285610
H           6.65339041133019   -1.68020208882802    3.95983467808052
H           5.12053286866407   -1.98683727202361    1.83257707771479
H           7.06601535221187   -6.46119391078298    4.03958602479204
H           5.90303215566836   -7.11614624880405    1.28089814506814
H           4.93313875683712   -8.95438647901077    0.45898505523897
H           5.35183097690762  -10.68056970952029    0.33046324675015
H           7.24883117314297   -8.36221168336163   -0.31705883089720
H           6.41933757763037   -9.38180161152013   -1.49327335373913
H           7.64036678711668  -10.08484806031970   -0.42892901947958
H           8.71195728902870   -8.93521521737175    7.38665069244758
H           9.21130394443294  -10.63479402229206    7.24463627157844
H           6.45366958812429   -9.61117210207989    8.11668000361760
H           7.66952531338120  -10.32823522723202    9.17565314543038
H           6.86723682058362  -11.31925658344443    7.95060298622789
H           8.32813972482028  -12.51612833374601    6.35346641342826
H           7.25819673895944  -13.21583098760033    3.55544949588320
H           7.39615057444867  -15.74630943432285    2.97985758823283
H           8.76255464011405  -14.69729380739775    6.95421979874968
H           8.94366741357710  -19.53839965936972    5.76315672481168
H           7.67148241773038  -20.63696519056339    1.77574844713195
H           8.47795732602877  -22.61469103599391    3.29294746031940
H           9.37087528587805  -21.83005929663971    6.11971594095954
H          10.18901365026637  -28.18161114699019    6.03711945321300
H          10.87173801897751  -26.61928812123691    8.59525282000388
H          11.02450002630152  -28.42891005649123    8.33803448729716
