64
 SCF done       -118.832416818463          0.000911915796
C           7.83066592507371   -6.23754272842555    3.97112882508065
S           6.98013108823191   -7.50248256958474    3.14621383661103
C           5.92221049704073   -6.21264682608932    2.56654203169237
N           6.27914201238606   -5.04787458535136    3.01112696502698
N           7.33676632942133   -5.06561021640233    3.78947144962448
C           4.81851071634962   -6.47145809054813    1.69893051105683
C           4.00873665260049   -5.48329402153071    1.26873283898097
C           2.90083363762053   -5.65891316629844    0.38682474341174
S           1.92542386345807   -4.28974948799224   -0.03324736623716
C           0.92224011928204   -5.25294030390254   -1.06399994774292
C          -0.26595325608406   -4.68199128756192   -1.64961044489044
O          -1.06632936048821   -5.28230957402580   -2.32809478754547
C           1.34845576963842   -6.57931415644305   -1.08460990374730
C           2.44902497998328   -6.80008909273647   -0.24423113069136
C           0.71339570435536   -7.66034901853328   -1.81613058457981
N           0.52817545320725   -7.71287672967900   -3.16557635870477
C           1.00308318597514   -6.77383799104766   -4.15139384371497
C           2.52643159318711   -6.70090358009718   -4.18521190771416
C          -0.12489663360300   -8.90897631536986   -3.55000786174946
O          -0.37274884431285   -9.18662004816884   -4.70339729044907
C          -0.34591383855764   -9.61115065559968   -2.30621969086728
C           0.21467397212514   -8.82046096971374   -1.26105560215671
C          -0.00208345983597   -9.50601487776387   -0.00697221336187
O           0.31702712434572   -9.24253694593721    1.13319051649333
N          -0.68914327552181  -10.67828683757943   -0.37822815387348
C          -1.15688544001215  -11.61444283189371    0.61484311098881
C          -2.64448984904062  -11.43407602501289    0.90792035434297
C          -0.90484713171184  -10.74676029698407   -1.73776003845161
C          -1.57653368136689  -11.83015866652207   -2.37085202755235
C          -1.80136155364426  -11.88843211714324   -3.70165318919423
C          -2.48994154926975  -12.99941232614255   -4.30369980857055
N          -2.92049414423043  -14.01175088147375   -3.51936796524795
C          -3.55056870947759  -14.98676476986343   -4.11902018875695
C          -3.76399330389101  -14.94395143001893   -5.51290966679750
N          -3.29090632597685  -13.91525264457195   -6.22132260849591
N          -2.66022458051011  -12.96324431879222   -5.62769314636615
C          -4.46969919223965  -15.97228844094851   -6.22111897476934
S          -4.72098912974765  -15.90311702356409   -7.95128254258381
C          -5.55839643861473  -17.43331158680015   -7.74494270335433
N          -5.57779648234458  -17.83599522427856   -6.50908590637503
N          -4.97900791000585  -17.03242807592557   -5.66989645350948
C          -6.14312699099762  -18.13548986196533   -8.85607239097680
C          -6.76962104940459  -19.30114415862178   -8.72242558144216
H           8.69250195091735   -6.43295843053432    4.57588805289870
H           4.66413634494370   -7.49904342130324    1.40734939870200
H           4.20602349749111   -4.47656285429242    1.60983579439681
H          -0.40060975558450   -3.61112679759634   -1.40617288979140
H           2.89539318147332   -7.76896387948913   -0.11817034648257
H           0.57104986893599   -5.78913346101608   -3.96255503227703
H           0.62435676813861   -7.14217474670220   -5.10898934064979
H           2.92337442548898   -6.33305417647048   -3.24111493201755
H           2.84100058137839   -6.02753070197627   -4.97742051449220
H           2.94681545177522   -7.68505917083503   -4.37945646632424
H          -0.57721743046255  -11.40730850984607    1.51904260863624
H          -0.94611314157041  -12.63579443160019    0.28598686659337
H          -2.83190726784779  -10.42495573604499    1.26683954491241
H          -2.95685991123647  -12.13891221108852    1.67344258361702
H          -3.24126284264983  -11.59996585750555    0.01394413162853
H          -1.92352971829737  -12.64868221318304   -1.75598353745501
H          -1.48211853858938  -11.10686487225079   -4.37582028348628
H          -3.90042283495895  -15.81750075597278   -3.52196482573568
H          -6.03969787555556  -17.65415734588838   -9.81775977091476
H          -6.86251841721770  -19.76651287914469   -7.75666254251145
H          -7.20010082998431  -19.80913679035814   -9.56745340209713
