96
 SCF done       -176.111091940762          0.000382251512
C           8.62980281600214   -1.14154391645106   -4.21238109254210
S           8.82165810000108   -2.20966851568486   -2.86295862776344
C           7.38176733616049   -3.02442306574770   -3.49415474063717
N           6.93330897344703   -2.45843329738469   -4.57188765985050
N           7.62559790265604   -1.41895729240436   -4.96666687460612
C           6.81614303493161   -4.15425556578417   -2.83942098637726
C           5.76160086307868   -4.83693472586740   -3.34584029031009
C           5.14782668229816   -5.95100990256432   -2.71321054086240
C           4.54743078280183   -7.03807769966127   -3.33424248609610
N           4.31698547115152   -7.23493753405385   -4.70943770603554
O           3.74980083320724   -8.26388018078155   -5.03367492351571
O           4.68559833327572   -6.37864586817262   -5.49425605972178
C           4.21159537299325   -8.02743632839086   -2.34862692092557
C           4.62673631437470   -7.58727102919866   -1.13131157488711
C           5.16962268403935   -6.26748172840458   -1.27537239336494
C           5.47202612821041   -5.40106788673036   -0.24316029936528
C           5.32527807538456   -3.97607664986004   -0.24894644284868
C           5.50737788410688   -3.51725315196266    1.01640050638573
C           5.84093819202200   -4.61902479763746    1.87775216300071
N           6.28510787061187   -4.38604927845992    3.19389107192445
O           6.79524271303391   -5.29975655855623    3.82128689706966
O           6.16683832134720   -3.25099988853054    3.62230028683882
C           5.81688552887224   -5.79997785925003    1.13696368197329
C           6.17606443695452   -7.12707295576140    1.46536816231614
C           6.05403401240027   -7.70815024658925    2.69525216182107
C           6.45149251101075   -8.99732512209020    3.10108699313176
N           7.30127386791504   -9.89747179872740    2.50273294102311
C           8.03412080474583   -9.76618781148044    1.26574120844136
C           7.24895409267365  -10.31506826485773    0.07599893521651
C           7.48936171399201  -11.05291187666012    3.29462655858297
O           8.21291067805145  -11.97106036280605    2.98149188167231
C           6.66630827465685  -10.82142569148546    4.46346116049619
C           6.05031729042965   -9.57051232319457    4.31864001008401
C           5.22996539598223   -9.34327221563689    5.48946557464954
O           4.49122600416894   -8.44182471092575    5.80641543012483
N           5.43395776006761  -10.50187950949574    6.29109378532515
C           4.84933364750416  -10.55046772719991    7.61170345253585
C           5.88274185759931  -10.24888065086755    8.69576006678563
C           6.28693344968055  -11.38703485671323    5.68840332344420
C           6.76573919751897  -12.65689716290437    6.11383902318925
C           6.46017979467946  -13.33984630675832    7.24023263096926
C           7.00499859988769  -14.62997152110815    7.59865113155515
C           7.44939612190612  -15.51827558331179    6.60552560636522
C           7.88086753631108  -16.76758673032226    6.97845519267059
C           7.88547561237622  -17.16155003971856    8.32255700359749
C           8.39822598383548  -18.55257809255836    8.39271649063382
O           8.55723637868873  -19.26070008767394    9.35383468695474
N           8.66150397693598  -18.91162454408239    7.08009584567545
C           8.38133027797205  -17.90486263470468    6.16620618630486
O           8.52025791220852  -17.99271079388111    4.97419551168059
C           9.21472158734096  -20.19485341092457    6.70107217291017
C          10.73829894834138  -20.15168628576665    6.67515151455219
C           7.46694133440795  -16.30818868700543    9.31460796791025
C           7.02782233546770  -15.02341428624511    8.96392570819541
C           6.65474208823461  -14.07588362288428    9.99185745469938
C           6.20120850546155  -14.36964053528651   11.22384328025428
C           5.82845534740974  -13.32216857557334   12.12341703829513
S           5.38707550948356  -13.60979312532454   13.79821480134599
C           5.14743583521981  -11.86896507761355   13.89666437061119
N           5.38717109310641  -11.27169844487351   12.77089323234577
N           5.75882161688899  -12.06323137966598   11.79945595686905
C           4.73056800021650  -11.22661820005573   15.11276200433963
C           4.55725292505606   -9.91092703138657   15.20588220276869
H           9.29914181273985   -0.32459398261139   -4.38987534707454
H           7.29216633919848   -4.45897305056876   -1.91795959027401
H           5.40377211677401   -4.57238990121856   -4.33300259083388
H           3.71132137147317   -8.94858621111054   -2.58003033429119
H           4.43504023275540   -8.06457758595046   -0.18961396026174
H           5.02049014481551   -3.39918756486926   -1.09963766882360
H           5.43420541805366   -2.50366748131341    1.36259917987543
H           6.51711301677551   -7.71614303033997    0.62714542493290
H           5.55899922344036   -7.16110926811059    3.48558969456332
H           8.94560044877147  -10.35987148374471    1.38731179514746
H           8.31358817983202   -8.72030408640051    1.12270227714916
H           7.08155686245654  -11.38062526156620    0.21058979425317
H           7.81516749643245  -10.16728845157644   -0.83937043313185
H           6.28237385050925   -9.82724638171959   -0.02802214003343
H           4.36397257815533  -11.51693207988800    7.76681445880522
H           4.07620227364024   -9.77644049592619    7.62085502398848
H           6.77276020307907  -10.86146943275811    8.56861449560729
H           5.46592633487841  -10.44008440665426    9.68085654333421
H           6.18136060739543   -9.20542449913277    8.63905828246380
H           7.48013348964440  -13.07425138259958    5.41538043476970
H           5.76391083266934  -12.92401597986869    7.94828733251102
H           7.42367133375975  -15.24227507184212    5.56336254076868
H           8.82427997733740  -20.43942793522421    5.71037517235009
H           8.86593206403031  -20.92874251681795    7.43139471261823
H          11.08086612682998  -19.41212955752236    5.95514116323449
H          11.12837600562539  -21.12429722496682    6.38968549189149
H          11.12427298392298  -19.89471827679458    7.65895854740853
H           7.50597205822191  -16.61574412838380   10.34738013731238
H           6.74507698293635  -13.02523511190117    9.75885028212394
H           6.07068818145369  -15.38193729738323   11.57530080282987
H           4.56755824143776  -11.88176120404819   15.95705613191003
H           4.72715269190696   -9.27243975035407   14.35631180616779
H           4.24778798734211   -9.44848889977933   16.12646689422577
