106
 SCF done       -191.233327886610          0.000944720409
C           7.33586228795445    5.02590980536151   -5.61858145909439
C           6.52891446068625    4.73178196537119   -4.60309408931163
C           6.00829425429255    3.41973135011081   -4.32197452521053
S           6.12082535182787    2.15725344918823   -5.51155259720548
C           5.19333080052388    1.08053873185480   -4.51443435584892
C           4.94150340005647   -0.24445201074131   -5.07054070379368
C           3.76393016759642   -0.56087060212312   -5.75909659109926
N           2.70469694358639    0.23585750903245   -5.94441023333257
S           1.60322751556281   -0.55789341558213   -6.79441344339477
N           2.39209145431683   -1.94455274228124   -6.97593598518194
C           3.57905852417492   -1.85223898801398   -6.37419085780432
C           4.56377324112567   -2.87194946748760   -6.33130030729539
C           4.25527442415145   -4.10555143703455   -6.96113432574238
C           5.05668014312901   -5.20645145878392   -7.05096444083363
C           4.71473841496465   -6.43766036562732   -7.63714162581185
S           6.01949020779360   -7.53610041837539   -7.98377590993243
C           4.97940349013437   -8.70589559079907   -8.72082992903166
C           5.48735295176414   -9.85130611583489   -9.38282699519120
C           5.01847507989390  -10.37545300478967  -10.56289298715390
C           5.92089727745767  -11.40139511982597  -10.99369787237203
C           5.74387472379999  -12.16998130427672  -12.15136090960981
N           5.58296724134560  -12.78976741378409  -13.10456314531262
C           6.96303501923660  -11.50323894730819  -10.09553252925235
C           6.72379746528774  -10.58783829778501   -9.03308564258112
C           7.37230225442304  -10.55749457769716   -7.81673464012922
C           6.80725349819300  -10.16289138586158   -6.56760227978716
C           7.70070705701324  -10.48897507777138   -5.57383068540930
C           7.49968858342262  -10.32432717329355   -4.19823353781595
N           7.33616785821251  -10.19729801840027   -3.06837915151643
C           8.88993989878858  -11.04774029255478   -6.16607107122998
C           8.71773996348813  -11.10388310738864   -7.52068388881726
C           9.66719157684063  -11.48623701915358   -8.51115523765910
C          10.76172164300607  -12.24718945749130   -8.27762918595191
C          11.67547199717838  -12.65344505238909   -9.28678344835892
S          11.47586431596612  -12.16447602366345  -10.95287464999141
C          12.84729776582384  -13.07540097972151  -11.42179815779931
C          13.43667126204168  -13.71848203008583  -10.37216400709475
C          12.77560508692378  -13.48006184518285   -9.14642253805591
C          13.19756399085223  -14.11569224551966   -7.86101693936714
C          14.57820608019429  -14.77352794295945   -7.95912714730242
O          15.61904286592414  -13.84035058725422   -7.78436028912445
C          14.75966098451878  -15.54056231520074   -9.28768710931986
C          13.75900533062500  -16.68161352257403   -9.43159856608785
O          12.81717174407865  -16.86830182943223   -8.71934417236967
O          14.01650538075487  -17.51645254903290  -10.45286148685003
C          14.66117681370189  -14.57390584421076  -10.48012426562057
C           3.63999552018893   -8.27788645031258   -8.65489060627208
C           2.51252488829600   -9.01424892348521   -9.05181578933797
C           1.25871568744792   -8.49425725663385   -8.86302546531117
S          -0.20226474303512   -9.37898715453333   -9.34727613856887
C           1.08600664796081   -7.23095113056046   -8.23878074330834
O          -0.13719342372425   -6.70861584372538   -8.01585904264317
C           2.18413338632898   -6.51538797093821   -7.81487928333631
C           3.47965088954627   -7.00640553307610   -8.02604948547358
C           5.75588051502327   -2.53034224478295   -5.64537364253092
N           6.75993934834174   -3.42912093428134   -5.56047223350697
C           7.84932898920575   -3.10907595774894   -4.94270383533658
F           8.81851256017111   -4.02474791899020   -4.89264668915917
C           8.01343170850945   -1.83563411315682   -4.33456415130058
F           9.13620437980495   -1.53398717337861   -3.68503134892110
N           7.08388285740797   -0.94454167755995   -4.38435971001263
C           5.93049103290227   -1.23563825380720   -5.03904780694572
C           4.84923317186907    1.65586385734901   -3.32335801771829
C           5.33939300393248    2.98515785641065   -3.20173659571276
C           5.18329582970729    3.82738580125527   -1.96433561395312
C           6.55660370663457    4.14334923846151   -1.35781066526566
C           4.31140749722837    3.14473455311190   -0.89952881700781
C           3.30568710273612    2.17515576039886   -1.50132249563110
C           4.04529758180119    1.03789646392609   -2.21396013652040
C           3.06324030151646   -0.03436735124247   -2.67333662286442
H           7.67901383334788    6.02974922980604   -5.79615587081819
H           7.67993860413522    4.26532075692552   -6.29979854743793
H           6.20023400662037    5.51456110598015   -3.93180167972393
H           3.28084556136825   -4.10982426299549   -7.42568382686571
H           6.06612292416102   -5.13036471876075   -6.67212483814641
H           4.17954521583165  -10.03142879288991  -11.13744989569159
H           7.73960355830461  -12.24168394989236  -10.13087193828987
H           5.80764563961674   -9.80554665593923   -6.41250805717354
H           9.76174643150733  -11.32948416772297   -5.60715688677598
H           9.49030473805951  -11.13904709623136   -9.52036499525737
H          10.95500848423252  -12.62345011951728   -7.28345367228252
H          13.14524282318684  -13.08905844897092  -12.45161766557572
H          12.46572950793746  -14.88046260915890   -7.59042896503157
H          13.22798743185233  -13.37748580012619   -7.05522647371093
H          14.69313462338642  -15.48283054085179   -7.13243100521517
H          15.44070725063528  -13.07374732301490   -8.34150371868249
H          15.76523999038139  -15.98119896753212   -9.27593454325416
H          14.82118066455498  -17.28821465610021  -10.93719925040344
H          14.64597273246057  -15.11507646426179  -11.43071224643163
H          15.55395117219968  -13.93851635874523  -10.49081606324248
H           2.64241343068655   -9.99774498145793   -9.47572116784126
H           0.43306166574706  -10.44553102271946   -9.81838914567675
H          -0.83052446787534   -7.29920074057026   -8.33923073917704
H           2.00191710379518   -5.59295093741962   -7.29322241199965
H           4.70745420327250    4.77117036173752   -2.25983273401573
H           7.06860344912270    3.21868832055786   -1.09951138875187
H           6.43547386656757    4.73715763308793   -0.45393890735061
H           7.18464618162422    4.69240580454277   -2.05347349099310
H           3.79499979975124    3.90802186197809   -0.31416784290802
H           4.95518290700935    2.58708571877901   -0.21477082554828
H           2.66139067802070    2.69078027546010   -2.21698060751109
H           2.67501072313383    1.76461753250389   -0.71014845931951
H           4.74332944754733    0.58029375399077   -1.49945838155927
H           2.42166440217702    0.35276841502193   -3.46124746575219
H           2.43973589954965   -0.34256302082081   -1.83594704162533
H           3.58701628314733   -0.91182401092707   -3.04534039636454
