86
 SCF done       -178.317190290389          0.000813353238
C           1.49490769006310    0.74370882044221   -7.47657550002148
C           1.01097524266057   -0.30671874159297   -6.76958798628952
C           2.14933768263149   -1.07186637017156   -6.33401009527317
C           3.33313939220755   -0.37552120903934   -6.79991091614801
O           4.50240003514849   -0.56021598381753   -6.64143464371678
O           2.83695042438794    0.73103210425440   -7.51360024199378
C           1.68227407262080   -2.13125769819997   -5.60462605694123
O           0.31801842325737   -2.07176047444432   -5.52801174876174
C          -0.17111094624881   -0.97838292308398   -6.24245664577320
O          -1.33916422047487   -0.74279960938222   -6.31198527014192
C           2.37801767650559   -3.18453366886274   -4.94605646310894
C           3.52565773624128   -3.84018592606632   -5.37132705946439
N           4.19960249998307   -3.72990507161919   -6.61522381557461
O           3.66381001045642   -3.10831295451619   -7.50914079928803
O           5.25524834105246   -4.32094970295173   -6.71582168681733
C           3.86513383838041   -4.86294748704505   -4.42293054465084
C           2.90419036490376   -4.90087192481709   -3.46716608173940
C           1.93711023351700   -3.86407239014720   -3.73570524419464
C           0.87355113132150   -3.51686166718400   -2.91835637480016
C           0.38875681876485   -2.21140622980273   -2.64109584017999
C          -0.45123351395019   -2.26951307497490   -1.56142275279935
C          -0.60482282372030   -3.62949037550701   -1.16133279312306
N          -1.45266636629115   -4.03416584644839   -0.11735318331254
O          -1.54464411365381   -5.22918585658157    0.12965486953317
O          -2.04283620993719   -3.16474128934296    0.49673082824884
C           0.16232256047102   -4.44165570495691   -2.00631713366359
C           0.11700289812689   -5.83721099506280   -2.10316871454366
C           0.53299984908587   -6.53259218969533   -3.21417364756282
C           0.68020039889864   -7.91159184676421   -3.41359343947597
N           0.43267230575314   -8.98858247200300   -2.59612876978151
C          -0.22213305125654   -8.99661052509940   -1.30684828951298
C          -1.72760469889976   -8.78336812134065   -1.42967077023259
C           0.81493416204067  -10.19883183375299   -3.19955539954700
O           0.68771336606364  -11.28500897669957   -2.67297297388477
C           1.36524215117965   -9.81501359225959   -4.48838581084774
C           1.25771306832688   -8.42382158787457   -4.58951065398181
C           1.84431422507648   -8.00290312297331   -5.84670285283308
O           1.99530215300689   -6.91113169669216   -6.34455182915787
N           2.25453980513051   -9.21225004858378   -6.44912748577512
C           2.94157644268321   -9.21073539907977   -7.71990408458888
C           4.45482241818919   -9.30904590453204   -7.54606052502120
C           1.99045136816965  -10.29749769855091   -5.65530153363850
C           2.29931691793073  -11.63059327282160   -5.99751746662046
C           2.01603539390594  -12.66874521726458   -5.15901707830270
C           2.28720616648474  -14.02994623052978   -5.42444413015593
S           1.87112786337579  -15.22591374661491   -4.23036283403121
C           2.46608350535718  -16.51976637015200   -5.21846214526461
C           2.96474675843141  -16.01727766280507   -6.43138161208403
C           2.86130975578769  -14.62793863232578   -6.53668898670314
C           3.52051568582806  -16.78907963795620   -7.46955961740355
N           3.98378690360484  -17.35694508739887   -8.35095169703868
C           2.39207952626524  -17.84357850880578   -4.72894890889609
C           2.81166398790229  -18.97124321371195   -5.36442934381878
C           2.68611874966350  -20.24546559001545   -4.76345192639133
C           3.04300408472802  -21.48817758004873   -5.22876575272134
C           2.69546290577941  -22.44878418625721   -4.21610009972535
C           2.10672282095535  -21.70039583399652   -3.10991816418045
O           1.66478421193198  -22.03062123729015   -2.05256389374712
O           2.13370797567268  -20.36757764726816   -3.51629306374869
C           3.05335538814216  -23.66809520278669   -4.68850555122549
O           3.59846362267229  -23.57385101743317   -5.91202521849341
C           3.63001499540866  -22.22843406214691   -6.32939739893731
O           4.07365599754481  -21.90318151694504   -7.38999020369198
H           1.00262120559782    1.55084545083316   -7.98753617947438
H           4.73743285102320   -5.48133387750378   -4.50950295283402
H           2.89510651234071   -5.51803335801915   -2.58993849939726
H           0.73391638232940   -1.31403698504072   -3.11541824134936
H          -0.93378181016880   -1.44576075573125   -1.06928852165262
H          -0.34123304562190   -6.34413498675466   -1.26577112891080
H           0.80794995655135   -5.96444490563473   -4.09413580402767
H           0.23284762454808   -8.24182471918566   -0.66154011972950
H          -0.02590610490284   -9.98397871876064   -0.87909721484729
H          -1.95504977848209   -7.85398553300718   -1.94561778213569
H          -2.16993398478510   -8.74169934174017   -0.43900013385228
H          -2.17821443320314   -9.60537568407112   -1.98069067160910
H           2.69188740976493   -8.26042804335649   -8.19915619892725
H           2.56248746782074  -10.02765600293886   -8.33943552884978
H           4.82205901077327   -8.45084276533915   -6.98919038738503
H           4.93438993492039   -9.31558482047027   -8.52044182362802
H           4.73133814314453  -10.21578517524430   -7.01189805195449
H           2.76991270377050  -11.81343166458423   -6.95192913994042
H           1.54773034640605  -12.45670633435485   -4.20584451231245
H           3.19692169093104  -14.08519457333063   -7.40219215683210
H           1.95531993004689  -17.95430149270729   -3.74421037057499
H           3.25777097824650  -18.95454908744229   -6.34713168270233
H           2.97642094952349  -24.65212790412321   -4.26398784348821
