63
 SCF done       -160.227137133220          0.000370679162
C          -3.53774101238197   -2.63939969389850    4.04848302113950
S          -3.39277802764807   -3.64088648981030    5.45371424274219
C          -4.99734832944472   -4.26055220913668    5.26191003664581
C          -5.59449886999923   -3.72167700423931    4.17397173094974
C          -4.75884399640643   -2.78765125007779    3.47269706310423
C          -5.49176027800817   -2.28487931045670    2.34203244627760
C          -6.72348416093570   -2.86897174110461    2.30627278179198
C          -6.89685256586994   -3.79328420195570    3.48206924293097
O          -7.89318411471353   -4.38918981895457    3.79933605362465
C          -7.74489364064431   -2.62981233101126    1.33968308816179
O          -7.65460675796098   -1.54473813428964    0.54994787362217
C          -8.72672658368458   -1.52630132843291   -0.27944300875895
C          -9.52208526666663   -2.62658327839999   -0.02918767577359
C          -8.89849547684030   -3.34543717076327    1.01281934446696
C          -9.36440137599985   -4.57788498988537    1.50352022219804
N          -9.80184676903287   -5.59776732146560    1.78893586906319
C          -8.83386665437020   -0.44480330480563   -1.20007717291297
C          -9.87477283606252   -0.26921788697865   -2.04021445637588
C         -10.04252567583009    0.81706726598524   -2.95681166803762
S         -11.66647834262820    1.27197509193627   -3.35965280392485
C         -11.13269494456592    2.59539175710563   -4.33598386783457
C          -9.76092110280064    2.67130747660981   -4.35439086519451
C          -9.13672505601023    1.64609196941993   -3.59579420140728
C          -7.65413564724023    1.42043828610232   -3.56513793214138
F          -7.34817066657746    0.11131928610002   -3.55009105412459
F          -7.02007599418254    1.92841900223900   -4.61895652450037
F          -7.07106123031952    1.95100407837481   -2.47117324610922
C          -9.01612642478454    3.78989001795225   -5.02970638228401
F          -9.82439139976317    4.83737882334228   -5.28071446441278
F          -8.04010477018253    4.27072354335107   -4.24767356448744
F          -8.46973824587752    3.44462753142707   -6.19396090782268
C         -12.10952795713852    3.45704556244718   -4.97117088836065
S         -13.15033286472805    4.42980308826921   -3.99275780973763
C         -13.94213572848438    5.09069909427390   -5.38544941154513
C         -13.40027190086217    4.58882904762131   -6.54995812827278
C         -12.37293243413167    3.63905072973868   -6.30697348185623
C         -11.66669658036626    2.86822868038553   -7.38826196710808
F         -11.11739798242040    1.73830443836095   -6.90172869353128
F         -12.50198639201105    2.48071076621266   -8.35552799324664
F         -10.67518524805053    3.55284182240512   -7.95990773665464
C         -13.77551416129010    5.05849597709817   -7.92685796791192
F         -14.26757959424902    6.30795609788803   -7.90314966070726
F         -12.72278191205300    5.09913591783544   -8.74775094705439
F         -14.69663459364230    4.28285942920433   -8.50767146076977
C         -14.99110142997061    6.03054042280668   -5.11871540117655
O         -14.88363895132148    6.70224629023674   -3.95211395634972
C         -15.97175032443810    7.48722959028896   -3.80921630918732
C         -16.81303878988565    7.31322463129006   -4.88229535821590
C         -16.19136579060626    6.36671034140768   -5.73267642899298
C         -16.78289459840036    5.84389629888894   -6.89514571404294
N         -17.33738789591245    5.42715593959126   -7.80616112609849
C         -16.11078193607738    8.33514118730305   -2.65303294099063
C         -15.21249203343154    8.40267362594746   -1.67450398050009
H          -2.71516588369983   -2.01751844702123    3.75658509071451
H          -5.37891120957281   -4.97764335644475    5.96126755365770
H          -5.11412311415743   -1.57293577592399    1.63001759815578
H         -10.43130089443875   -2.90007756646105   -0.52357750803037
H          -8.01554876184843    0.25713426183406   -1.15553412817752
H         -10.71121947906903   -0.95223812828271   -1.99330802720864
H         -17.75720838051249    7.78783041531117   -5.05355804786961
H         -17.01421554261686    8.92683179827165   -2.63413852072178
H         -14.31187284975712    7.81277718050489   -1.69870624060041
H         -15.35192856738627    9.04906397443584   -0.82682362828085
