88
 SCF done       -160.344804745870          0.000571852237
C           1.16078438104374    1.83575699830000   -4.27581462667673
S           2.20868432997340    1.90513977678733   -5.65045013185138
C           0.87395910093537    1.86647475780730   -6.75576504346563
C          -0.30031479355028    1.80387498796971   -6.08917799215547
C          -0.14288179021487    1.78573689450346   -4.66099781284975
C          -1.44356751736523    1.71887394290302   -4.06382659880910
C          -2.40376805826993    1.69521938035559   -5.04232152804507
C          -1.74484985161372    1.74780428247388   -6.39706436121844
O          -2.27410450655661    1.74547481097091   -7.48043455017805
C          -3.81105699075111    1.63325736894558   -4.84860876655857
C          -4.48357290838858    1.55895966370703   -3.64623496182432
C          -5.87908860636299    1.48991013618496   -3.89607547603028
C          -6.04022732289590    1.55929559787336   -5.36387831809315
C          -4.80483569963633    1.64577127353906   -5.91816605300070
C          -7.24585236015198    1.63556934899970   -6.07255637149097
N          -8.20896561477834    1.74862320728584   -6.68814469331488
C          -6.89430119035390    1.37477120070413   -2.96958414232576
C          -8.27395611846799    1.17348123188914   -3.22408722530842
C          -8.96868560216752    1.18011516099424   -2.02402976308211
C          -8.00085200822136    1.37463487455381   -0.95788620652909
C          -6.75880409266865    1.46469958601460   -1.50737013942666
C          -5.57653632423331    1.63799038682972   -0.78103396399812
N          -4.62297763782078    1.77835868256802   -0.15510056318416
C         -10.37333693826689    1.00840343216977   -1.94789863506251
N         -11.21163468316055    1.37642575901593   -0.92617111277909
C         -10.87299008896637    2.01006437438201    0.32609856911690
C         -10.63696878396295    0.97986197858293    1.42837733216322
C         -12.56010574275849    1.10859102611429   -1.22994025523623
O         -13.47697722364001    1.37996642187382   -0.48043041966356
C         -12.52254966457487    0.50292815007963   -2.54254052136590
C         -11.17859211350565    0.45997407982664   -2.95726628101369
C         -11.12526732359367   -0.21303892847566   -4.24342803229090
O         -10.20446779044812   -0.52913693712167   -4.96147312094135
N         -12.47265829287667   -0.50473636818789   -4.53236645382432
C         -12.84397434209789   -1.11942894807338   -5.78528716145043
C         -13.33156656917034   -0.08739567986196   -6.79837037625103
C         -13.32111538538222   -0.08151599004874   -3.54150536522649
C         -14.71886547624489   -0.23723245600599   -3.58167390464616
C         -15.54298212650555    0.21165536894531   -2.58709139788690
C         -16.94818418132011    0.08546095102185   -2.60602441063315
C         -17.76461887379932   -0.49075345863963   -3.56594522517760
C         -19.11782334734428   -0.37622849909236   -3.16150443230257
C         -19.10085654308385    0.32255255408015   -1.86070785836892
C         -17.80746637771106    0.58834318223972   -1.54363148978403
C         -20.21280075955922    0.65940176037251   -1.08194320308071
N         -21.11410322264938    0.94487165057318   -0.42842657183740
C         -20.23774777552156   -0.82059129526579   -3.83493718228867
C         -21.59227079245350   -0.69938471399903   -3.42847285446678
C         -22.40594217999753   -1.27221341911575   -4.38228605828221
C         -21.55597465659118   -1.78466456208709   -5.44534621741414
C         -20.25964862556384   -1.52168651215035   -5.13284031116314
C         -19.15321713965953   -1.86361644541970   -5.91592666548190
N         -18.25596165240328   -2.15259228338097   -6.57376230856376
C         -23.82003759160481   -1.36859393988746   -4.37454859416249
S         -24.66115139377996   -2.15999072843673   -5.71202854680864
C         -26.20685980108179   -1.88016283774347   -5.00010657001897
C         -26.09228548705718   -1.22633528160135   -3.82026831319800
C         -24.74415304062961   -0.92902878296266   -3.45160870715268
C         -24.77450672856099   -0.23513612823628   -2.18223357136470
C         -26.05316805657966   -0.10250263592860   -1.77526575548261
C         -26.98949067494831   -0.70666212031291   -2.75572003770957
O         -28.19429898048447   -0.76178996758956   -2.70026392529316
H           1.58136811368415    1.83722190982694   -3.29009740376199
H           1.05807018124652    1.89274078314565   -7.81145425379193
H          -1.62420575306266    1.69435410823334   -3.00417374445259
H          -4.03944485903732    1.52452654227209   -2.67153239415450
H          -4.56854421816169    1.72234250522408   -6.96231407629602
H          -8.70318630541075    1.03199971110931   -4.19564924567222
H          -8.20674960089267    1.39305451466206    0.09476266021767
H         -11.72997298531407    2.63295714220777    0.60000666417890
H         -10.00352714247126    2.65377611566854    0.17954122614246
H         -11.55514001347683    0.42887474347081    1.61612751350021
H         -10.33870293370817    1.48047619543409    2.34546645292150
H          -9.86352021380056    0.26859221739801    1.14581817560289
H         -13.60532968428429   -1.88319978159359   -5.60662919777257
H         -11.93908255283812   -1.60308983330293   -6.16325357460915
H         -14.20211511510598    0.44736004279270   -6.42459461084215
H         -13.59996621788111   -0.58475824090226   -7.72585197759073
H         -12.54219598929999    0.63125442396701   -7.00433064068070
H         -15.14615966779332   -0.72765995763797   -4.44388246363932
H         -15.10910748183066    0.70288887079405   -1.72588957986647
H         -17.44660451749321   -0.95501113277854   -4.47773987819280
H         -17.44972554242356    1.08714259463438   -0.66188846916222
H         -21.91036957388725   -0.23292442255484   -2.52016511949000
H         -21.91702466931858   -2.28548061380759   -6.32480486830724
H         -27.09084401634408   -2.21870973374733   -5.50400475863713
H         -23.90847345714909    0.11747207613994   -1.65143289553690
H         -26.39356417394880    0.36902389761496   -0.87173830437330
