71
 SCF done       -144.193917156471          0.000880660850
C          -1.42953341069610    0.86573183203076    5.21383134442487
S          -1.44799995277740    2.57470159935828    5.00147277540483
C          -2.04858657292281    2.48582065377584    3.37494327381682
C          -2.22545071074173    1.15612918141533    3.01974190555429
C          -1.86887776364642    0.25798597588008    4.07642148647480
O          -2.05545249017283   -1.02156780406117    3.69331746224485
C          -2.52341027569760   -0.94602616854829    2.41414489769208
N          -2.81184430427925   -2.16581139414010    1.75071036183427
O          -3.22581006040573   -2.07517134545288    0.61123189034872
O          -2.62853292796134   -3.19798860657965    2.35712099964955
C          -2.64956647850279    0.33472583022889    1.94664611141613
C          -2.30611417115306    3.62754298693488    2.57819656632560
S          -2.06129142286665    5.27998903135079    3.12028286688576
C          -2.64063393344460    5.74208180034723    1.51978233660069
N          -2.93974257766327    4.70767903732598    0.78216111291858
N          -2.75924159223057    3.55548024173384    1.35425498048204
C          -2.75591843705613    7.10047330890379    1.12766968748455
C          -3.21466699880764    7.45780635073162   -0.09786793950070
C          -3.34162068939007    8.81126645492144   -0.50003803836493
N          -3.79944887292875    9.20248735649494   -1.73767699515652
C          -4.16705076492337    8.33763783958339   -2.83291805939903
C          -2.94274994515413    7.78540931243699   -3.55849318545946
C          -3.83297328569929   10.59958638801679   -1.86989621120689
O          -4.20557499314878   11.17006446781468   -2.87764166259884
C          -3.35976333620631   11.09256193055869   -0.59576910841824
C          -3.06743602125995    9.97014013294037    0.22193316494987
C          -2.60552212190987   10.46084707508842    1.50053345904413
O          -2.24545642786465    9.89145263431530    2.51251603756061
N          -2.65403044431880   11.85957413201996    1.37451262734322
C          -2.20907550662204   12.71789828674729    2.44575111318558
C          -0.78787070454950   13.22528962183510    2.21347974609180
C          -3.09421749835272   12.25078318032742    0.13093675053412
C          -3.23496365975748   13.60950930551908   -0.26118490673769
C          -3.66899143242327   13.96295105236480   -1.49312295463045
C          -3.83701810305339   15.30813332025046   -1.96432568149683
C          -4.44633303546961   15.54801230866233   -3.21013654865259
N          -4.62853060245236   16.75232237170954   -3.69565133638290
C          -4.20577099029596   17.78027074494388   -2.95251878353330
N          -3.60671539556369   17.67643528164076   -1.76509786280981
C          -3.42457506986439   16.46831220986952   -1.28635031940761
C          -4.41143995494139   19.09357444294131   -3.49002438891026
S          -5.22246540803698   19.29802198993951   -5.01576955898021
C          -5.09016306207918   21.00241780998559   -4.98333842831621
C          -4.44364274097586   21.42443553379813   -3.84491199759134
C          -4.06154019959964   20.33052159624323   -3.00022398175630
O          -3.43029219510390   20.77364961814604   -1.90088022497917
C          -3.40044960023541   22.12894627360356   -2.02502161961233
N          -2.77818920120318   22.87692327488934   -0.99127169762833
O          -2.77046989038346   24.08494748365642   -1.13454302994008
O          -2.30506302896533   22.27339250667879   -0.05542733695322
C          -3.99189609684314   22.59118661557418   -3.16869836096476
H          -1.10510331944125    0.43638223188580    6.13863870109139
H          -2.99410749361069    0.63888551116013    0.98030886667719
H          -2.46341819214009    7.84942661186686    1.85032854251716
H          -3.49693128783173    6.67840540629457   -0.79016554468311
H          -4.75304902776769    8.95491769180404   -3.51982825055649
H          -4.79758195752763    7.52550187111696   -2.46124867805728
H          -2.34367121394372    8.60293502692453   -3.95232973813571
H          -3.26032468077988    7.15761181281593   -4.38616557362122
H          -2.32483910966607    7.19323226557276   -2.88741287282501
H          -2.23543586831144   12.10706203567572    3.35255322800184
H          -2.90788658125007   13.55066635895321    2.56358550967792
H          -0.10105953335694   12.38479909169183    2.15041293195297
H          -0.48373193995916   13.86121559635701    3.04020415245215
H          -0.72173590096367   13.79525065250725    1.28912427333260
H          -2.99007865389614   14.36420002200642    0.47161209655167
H          -3.93025473642363   13.18545633108512   -2.19983389238543
H          -4.79654681973153   14.72533198234649   -3.82130354103245
H          -2.92049040887160   16.42577317203848   -0.32950104348757
H          -5.48516335219923   21.59240900964359   -5.78520626401393
H          -4.07988556170061   23.61588225352739   -3.46489564232215
