93
 SCF done       -172.791376933058          0.000691986833
C          -2.50013053232402   -0.59120268962741    4.67971668518024
O          -2.78094080798017   -1.71371640318510    4.02868323038524
C          -1.76854618103772   -1.94114115773307    3.15431196147810
C          -0.82665601117983   -0.94194537612389    3.25377442440864
C          -1.30536436553806   -0.05721783642888    4.25299882865021
C          -0.70074424788412    1.18932467839395    4.76978125930645
O          -1.21589039171896    1.85547461736982    5.62466989214004
O           0.47222375597398    1.53943433478398    4.22199294696454
C          -1.80606858964767   -3.08528361679658    2.30648618266499
S          -3.13609621030636   -4.20976350120984    2.36125516882194
C          -0.89127331190367   -3.48779427792587    1.36045568044378
C           0.40812328430777   -3.03387510859349    0.84628139557188
O           1.07618873197773   -2.06958600533373    1.14067547790624
N           0.75698632181281   -3.97152909898433   -0.11261957372057
C           2.00747014980664   -3.93174763081017   -0.84119953368564
C           3.09713344455786   -4.70404852585792   -0.10559620707668
C          -0.18113195492951   -4.98379171405887   -0.27824636668924
O          -0.06776403478581   -5.88803116474889   -1.07328920879317
C          -1.25251138722199   -4.67467989148826    0.67807329855886
C          -2.45572914704941   -5.21612931971872    1.09270889050304
C          -3.16948993339485   -6.36915757924419    0.68480680120001
C          -2.78953237474406   -7.16009706954032   -0.35433402381873
C          -3.51678564145055   -8.30948166677010   -0.74272995530350
N          -3.17864273218821   -9.09229217793506   -1.81884728620624
C          -2.04960003506228   -8.90955606255009   -2.70058083002906
C          -0.74651006584913   -9.39741208956855   -2.07417563092263
C          -4.06316583307093  -10.17218678340053   -1.98446788673774
O          -3.96363877644041  -10.99164594865464   -2.87463317094991
C          -5.02019589936507  -10.01966205954938   -0.90824115372314
C          -4.66239667621742   -8.87017413187730   -0.16946406570261
C          -5.61542001264117   -8.71690987589492    0.90897131547299
O          -5.72394551335801   -7.88289788232644    1.78702851920950
N          -6.49548431987002   -9.79675523529180    0.75035221663511
C          -7.57800128095738  -10.01755991686697    1.67867734249166
C          -7.23076509805337  -11.08438465564751    2.71424847628130
C          -6.15837050051647  -10.58938512519932   -0.32626047868739
C          -6.87935887540757  -11.73817493832866   -0.70820271379971
C          -6.55345372604366  -12.49338657883877   -1.79879607968363
C          -7.24970072237191  -13.65389301897100   -2.20099894749677
C          -6.96822283943733  -14.41432240035900   -3.32296219867871
C          -7.86092091496301  -15.51688833286101   -3.38357610494364
C          -8.74226904597070  -15.39078200365837   -2.20724485609063
C          -8.37579711719942  -14.27889641443881   -1.51962022105292
C          -9.80906229306435  -16.22377181139706   -1.84999378005984
N         -10.70219541529707  -16.86436178452876   -1.51676594017508
C          -7.91093142211558  -16.51768687516818   -4.33104392107150
C          -8.74118139762319  -17.67273425249228   -4.33560965753764
C          -8.47584977404763  -18.41799478224098   -5.46543824153841
C          -7.45058555471675  -17.71854917436314   -6.22737780972339
C          -7.09367984121307  -16.59209346102508   -5.55827932558865
C          -6.13751319882953  -15.67146205074600   -5.99918507645524
N          -5.34574617398956  -14.94461197538078   -6.40512372450486
C          -9.04294404032113  -19.64910903821112   -5.89094673621930
C          -9.91034119716683  -20.39763331965771   -5.16645465552264
C         -10.45467058372093  -21.62378139711096   -5.64009318690829
O         -10.18944011130481  -22.06341569699399   -6.88844407725887
C         -10.83648556530003  -23.22351326585716   -7.06230732753320
C         -11.53504524471155  -23.56772222612518   -5.94643177930702
C         -11.29824308515244  -22.53295832535272   -5.00027744648687
C         -11.79217422419163  -22.41446736703425   -3.61909349179427
O         -11.43900755253323  -21.55578401884328   -2.85642275960668
O         -12.68399627880584  -23.34728664760249   -3.23467389576623
H          -3.19078668191141   -0.24240080387130    5.42166378043341
H           0.07030406705530   -0.89357441522077    2.66833106589926
H           0.77189325428095    0.91432530139789    3.54749866216048
H           2.28971542576176   -2.88192234517941   -0.94815961361210
H           1.82719846623324   -4.37138367770297   -1.82492371094635
H           3.26072951994066   -4.27614617078460    0.88089829939169
H           4.02587355894787   -4.65397659282359   -0.66652426600813
H           2.81001850190231   -5.74729247414839    0.00405154977498
H          -4.06567483723568   -6.60379687611058    1.24464371321557
H          -1.90061519907204   -6.91202200019895   -0.91469055537445
H          -1.96846028103558   -7.85556302720422   -2.97743019593140
H          -2.27057132635625   -9.49848906221572   -3.59521050372619
H          -0.49234490635952   -8.81006333517303   -1.19618533209204
H           0.05894245602201   -9.30204192361076   -2.79600468001676
H          -0.83673436014169  -10.44215784886578   -1.78786472244512
H          -8.48354843310914  -10.28646063276919    1.12780467742500
H          -7.74462538292978   -9.06090744006656    2.18163835553729
H          -7.00484248117711  -12.03551588032180    2.23728822207276
H          -8.06643217776194  -11.22323406626430    3.39425383779283
H          -6.36272636535850  -10.77285864676433    3.28956076797693
H          -7.73071487069429  -12.01347655511838   -0.10313274080958
H          -5.70883427052041  -12.20244653023164   -2.40979078085093
H          -6.18803339177235  -14.21010467214282   -4.02996250657320
H          -8.84071830968915  -13.92298982465513   -0.61915034998802
H          -9.45111459787065  -17.91454247439747   -3.56987208198104
H          -7.04803831581708  -18.05847519611822   -7.16423275520118
H          -8.73670015853553  -20.00635961769644   -6.86661528402154
H         -10.22423464926270  -20.10835229447627   -4.17512449471944
H         -10.72811578353707  -23.71036224559820   -8.01144498837269
H         -12.12542845430248  -24.45588238122449   -5.83322341353934
H         -12.89502764199194  -23.97152718440368   -3.94015062272920
