70
 SCF done       -127.494204438006          0.000667439299
C          -5.18276859580902   -0.88151052155469   -0.93133845425224
C          -4.26675494547197   -2.08880878057511   -0.84324900184649
O          -4.44045955484589   -3.26065126763506   -0.74036500669858
C          -3.94726753381798   -0.01241151499064   -1.07923847181990
O          -3.76056132245314    1.15041961925011   -1.24240148355099
C          -2.99912649634842   -1.22285271757149   -0.97047257441630
C          -2.13204193464577   -1.48621345373653   -2.14256730970222
S          -2.82260834348476   -1.60834227084754   -3.73063169506452
C          -1.26470476989950   -1.88205561853010   -4.45057629835195
C          -0.27399490531901   -1.87629985754461   -3.47059357540131
C          -0.77946466313598   -1.65098293477861   -2.16858433134734
C           1.09552919294061   -2.07729544065508   -3.69746937860561
N           2.22403613914097   -2.24063860854279   -3.83509032770013
C          -1.18812674651412   -2.06104910170003   -5.85535577448422
C          -0.03941342973655   -2.23182980596542   -6.55921305159085
C          -0.02897152972613   -2.39090909936767   -7.96683096296462
N           1.12337631038032   -2.55279128356854   -8.70293388681752
C           2.46782258385599   -2.65461195464903   -8.18709932934554
C           2.74874958192122   -4.03058980838328   -7.58947964129694
C           0.85927686963002   -2.66104634975034  -10.07655364035404
O           1.72505423110399   -2.80110048763958  -10.92091208846714
C          -0.57779893803499   -2.55309421438438  -10.17563110594856
C          -1.09467437149580   -2.39117500620685   -8.86417844765154
C          -2.53120282896558   -2.28163583326490   -8.96413191900264
O          -3.40080025207722   -2.13784577262877   -8.12466304810598
N          -2.79444324895227   -2.39078881633111  -10.33911415899860
C          -4.13724722925826   -2.27954923785869  -10.85347624176873
C          -4.41898993351166   -0.88739283389378  -11.41390880031760
C          -1.64041846787858   -2.54328100921064  -11.07570623105534
C          -1.61528160992029   -2.66079489296190  -12.48682538302963
C          -0.46040204317822   -2.77848944984749  -13.18929328321547
C          -0.39125682306350   -2.87336526623776  -14.60081439329590
S          -1.80716611151124   -2.86111615843124  -15.62500400557823
C          -0.85276061480473   -2.98623977119489  -17.06471699355048
C           0.50265057980699   -3.03453465887571  -16.74703841462021
C           0.75096259958306   -2.97182363424151  -15.36312413472061
C           1.55111964856645   -3.12972540691785  -17.67802661460091
N           2.43667786850531   -3.20953478810429  -18.40367949651515
C          -1.52060115930991   -3.02151257054960  -18.32909899647526
C          -0.92193391994547   -3.11468988413372  -19.52353548128132
C          -1.65628425638941   -3.14301694112407  -20.81306867721186
C          -1.19065455130591   -4.24387680816224  -21.78311454089948
O          -1.29789132109210   -5.42841731441203  -21.77661175146503
C          -1.13558610751340   -2.13714997531109  -21.85696926874998
O          -1.18247944878692   -0.95112442259955  -21.93266306563557
C          -0.57920372861424   -3.23774225589815  -22.74115724713353
H          -5.79378827177750   -0.68695571732538   -0.05020025747460
H          -5.84340310704119   -0.87791118546956   -1.79899190094212
H          -2.39430205567965   -1.21137879385112   -0.06004802968478
H          -0.15138743719062   -1.61500285449093   -1.29593220101611
H          -2.13332389740892   -2.05015658906397   -6.38331613917546
H           0.91064159961016   -2.23821991681925   -6.04795344698362
H           2.63752832725920   -1.87049636554908   -7.44418150041187
H           3.12974232212212   -2.48263979545410   -9.04056963433343
H           2.08694655985320   -4.23532505462720   -6.75115107654876
H           3.77522388506193   -4.07186269435118   -7.23704510490615
H           2.60608021655370   -4.80121324779253   -8.34332802818950
H          -4.80129708448711   -2.47407777331200  -10.00641590397928
H          -4.30301980182471   -3.04725009585935  -11.61465344029152
H          -4.28701588768248   -0.14139637584406  -10.63410246790522
H          -5.44242761831144   -0.83582136019662  -11.77491499298483
H          -3.74487807387219   -0.65248056653184  -12.23466647614237
H          -2.55858630692889   -2.64875163490379  -13.01663510957738
H           0.48783612800465   -2.79457092189556  -12.66691299298723
H           1.73771409567218   -2.99571477784813  -14.93603301818609
H          -2.60060857021314   -2.96530132842806  -18.27376893606428
H           0.15396425898225   -3.17082480044959  -19.59659538624130
H          -2.73541405260650   -3.10731665617738  -20.64851760261840
H           0.51103844884977   -3.26702531453668  -22.76776235064845
H          -0.93595754521587   -3.26405799795059  -23.77045601781240
