111
 SCF done       -222.200716842649          0.000772512901
C           2.31544197617690   -0.53330501311104   -6.66561256469275
S           3.53320409423692    0.62191114994187   -6.35995472641009
C           2.35895109469490    1.81908859329659   -5.88879538389330
C           1.07776116091414    1.31642935655249   -6.00880976739659
C           1.06573103344617   -0.03460935207822   -6.43702629105197
C          -0.20156806332659   -0.78574911815511   -6.70521060038211
F          -0.45509779177574   -0.73843294653082   -8.06769149614094
C          -1.37927576020665   -0.13971054557324   -5.96919727929868
F          -2.54019384468140   -0.75635485137245   -6.35207462174621
C          -1.41072066977097    1.35152443863179   -6.31285071650667
F          -2.54794382685506    1.93145936951014   -5.82214043546751
C          -0.19227436967303    2.04481327438758   -5.68858829091074
F          -0.35702938433558    2.03524407445387   -4.30648272131679
C           2.84564113001890    3.10536464164453   -5.49217458022125
C           2.15860191759121    4.02938955578487   -4.79385978400771
C           2.64373670121350    5.36030490846887   -4.55549512926210
C           1.92484536435232    6.49822861988830   -4.85720752470822
N           0.65124331807853    6.54948360666868   -5.44764695814683
O           0.12535942572725    5.49489115813480   -5.77692724464280
O           0.15138807333639    7.64552559815895   -5.61735365592324
C           2.74257945210469    7.66718933402745   -4.63016636115378
C           3.94838357194188    7.25761838999047   -4.17889092528056
C           3.94396720156782    5.81895060635242   -4.03783227030722
C           4.89122003674250    5.03995290927419   -3.41429934545617
C           4.84183406714565    3.61447175902707   -3.19815469042405
C           6.05527521712843    3.18668730567882   -2.78447300531009
C           6.93704999887498    4.32599120294037   -2.68528148408456
N           8.22359414046154    4.21532263611334   -2.12262188223147
O           8.65988792206432    3.09090936424069   -1.95547583433106
O           8.81777178537334    5.23243301451955   -1.79868919861325
C           6.23830283724735    5.47817943397948   -2.99868679716009
C           6.73551175176157    6.81630226307858   -2.94314724781516
C           7.90740110576552    7.19474939371175   -3.50865345249672
C           8.52623133283122    8.46803504997361   -3.48381203702306
N           8.38634363264545    9.48932316140937   -2.57286835754598
C           7.73907969073179    9.44052191242397   -1.27962683848623
C           8.41644139587000    8.44215669191706   -0.34633728608574
C           9.18898473455721   10.59169279757467   -2.90826507152292
O           9.25007722833131   11.61028380533816   -2.24142073846669
C           9.83948463018451   10.21623754160274   -4.14365663556531
C           9.42391264657715    8.91012677702865   -4.45935288243633
C          10.05519655132220    8.51667993199809   -5.70405174476987
O           9.98979023699922    7.50732339526634   -6.36725364867098
N          10.84768700494867    9.63217310144695   -6.04925195025950
C          11.61726085287799    9.65362949806804   -7.26962933371406
C          10.90841910034011   10.43729891004834   -8.37160766372961
C          10.72938244078803   10.65349356648205   -5.13996089334917
C          11.40847712897686   11.88203712404127   -5.21992816537656
C          11.24450805464807   12.84152915428746   -4.25822588339660
C          11.88715647422857   14.08321931695047   -4.23105140328069
S          12.99483163237281   14.60336619754304   -5.45551857308780
C          13.32391805183729   16.11397392012850   -4.67895064383467
C          12.56847195296030   16.22619608462974   -3.48777164140140
C          11.76169941210105   15.07261106339625   -3.23510452750051
C          10.95026726802336   14.99633393676600   -2.09319454186954
C          10.91728117587116   16.05732521112892   -1.21745890380074
C          10.11061098650502   16.00447148575140   -0.05626621594560
N           9.45286620789441   15.95799485675984    0.88021307268022
C          11.68663036106926   17.22784577709056   -1.48215898676303
C          11.61472559114546   18.32510533034241   -0.59143610022937
N          11.57294580347704   19.22176816927917    0.12001344822122
C          12.49312020103997   17.30886418177642   -2.59477850682767
C          14.24926947687396   17.04046180920663   -5.23331549294712
S          14.93010618295611   18.30762870837127   -4.24820644950857
C          15.84697795946575   18.96177264628158   -5.55950413714786
C          15.61398886052583   18.24205462354076   -6.71227222973252
C          14.75532005626145   17.13680440873786   -6.52801506517820
C          14.42321916540149   16.18730850919277   -7.64183293198736
F          14.87755514585623   14.91484356351835   -7.34400067754628
C          15.05081794903596   16.57068014096275   -8.99511598828141
F          16.32970213014525   16.08278265278060   -9.07028045318959
C          15.11546807282145   18.09030595245914   -9.13905801853518
F          13.85170192667073   18.58946459256677   -8.94142222980540
C          16.08705386044892   18.63130022661966   -8.08252551246006
F          16.16769487759931   19.99558844987244   -8.22017135636970
C          16.69955071060530   20.09027622678924   -5.27804795682887
C          17.82332874459584   20.39783076404667   -5.91843379004479
H           2.57601986317273   -1.51739012327956   -7.00090345598431
H          -0.11879713034573   -1.85054414825426   -6.45731640434660
H          -1.28827952613448   -0.27922391905119   -4.88442547587291
H          -1.42421458698347    1.49186196915984   -7.40095247102192
H          -0.16842283107430    3.10097931709730   -5.98464696609608
H           3.85643840722700    3.32821157512612   -5.81147157587732
H           1.14595381229927    3.84162460481129   -4.47213037932540
H           2.41111534020054    8.66855040647322   -4.82747612377127
H           4.78021529732336    7.89340769301012   -3.95836868998519
H           3.96765246483507    3.00992596981262   -3.32496403748989
H           6.35353008496781    2.18802159243036   -2.52905870058476
H           6.11206191296083    7.53223502036593   -2.42830743745485
H           8.42633048484654    6.48768645485195   -4.14373952515930
H           6.67701349710631    9.21445920408392   -1.39669152309634
H           7.82641899641455   10.45201548348676   -0.87129362159260
H           8.43184979379009    7.44295655346408   -0.77485233590694
H           7.88602285912534    8.41193269665455    0.60113042981078
H           9.44257789424557    8.74794445872500   -0.15776275801927
H          11.72862615055278    8.60991349106587   -7.57582165608853
H          12.60783666929852   10.07105335591835   -7.06980074077862
H           9.94525254721339    9.98258787163325   -8.58955092481082
H          11.51021421353272   10.42544638251361   -9.27580241672532
H          10.74432412724219   11.47031284581367   -8.07248457756030
H          12.08085512656866   12.05910263145869   -6.04780629245932
H          10.57032235352731   12.63390491671524   -3.43834768184764
H          10.35296164996695   14.11840696311402   -1.90005026926057
H          13.04421842759359   18.21785405010973   -2.76860368882595
H          13.33281971045381   16.09963316092302   -7.75966643741214
H          14.49156085481366   16.10580178401147   -9.81514576889525
H          15.42889367136357   18.39951435735654  -10.14232205281277
H          17.08981614383845   18.23554446091915   -8.30049739229400
H          16.39040838175234   20.67828830431165   -4.42345507528577
H          18.20270198133080   19.82024932158766   -6.74197655306937
H          18.40692378865941   21.25173593658241   -5.62435021018265
