99
 SCF done       -195.227665139299          0.000639292558
C           6.82867587681490   -5.51169377723473    7.10727434823417
S           5.43893833072742   -6.06930637282569    7.95006223149408
C           4.41202450395835   -5.97526274048157    6.52857369903079
C           5.17119761235048   -5.51869272243853    5.46372397525962
C           6.52556211809449   -5.26306349906238    5.80380137019911
C           7.21015473652238   -4.79213906774588    4.59291823754127
O           8.34087577390425   -4.46509521256476    4.40845555472293
O           6.25690759053589   -4.78189386911680    3.59358151863710
C           5.02084439863335   -5.20055538898111    4.04642333354569
O           4.06887368832964   -5.24852913848204    3.32124427802818
C           3.05262269902629   -6.35449799824986    6.65089217695841
C           2.17707839386730   -6.31851478774801    5.60983525941810
C           0.81069052638574   -6.69414562532110    5.60068017257885
C           0.00979826039802   -7.46981858886380    6.44918701619204
N           0.28722729230918   -8.09881804283110    7.67083489687347
O          -0.45241323299270   -9.01940374276458    7.99063597473376
O           1.21428317935871   -7.71934973379629    8.36694886696678
C          -1.26568457590592   -7.68844580713886    5.82787031886860
C          -1.26224436311869   -7.11607168236690    4.59783232703310
C           0.00812250579368   -6.48175459991694    4.39331714917276
C           0.35853899961620   -5.77731585567735    3.24432309858401
C           1.06164424660346   -4.56007598689497    3.10893067434786
C           0.90838763358871   -4.10114244282320    1.82063936185978
C           0.16668162404347   -5.05161289542005    1.06939227428307
N          -0.11935903860521   -4.93127594569987   -0.29690187203835
O           0.23483401926140   -3.91390650311316   -0.86526413586744
O          -0.72675778122487   -5.84416442529235   -0.84254171004259
C          -0.14955372649720   -6.13395415034075    1.90394801641818
C          -0.64758099878294   -7.39412428565182    1.56533150407108
C          -0.40814093469861   -8.49714172871092    2.35863801591727
C          -1.02438281366805   -9.75112362518685    2.40766372787845
N          -2.06204067989189  -10.28774178122764    1.68576010697790
C          -2.66421300896584   -9.75401278461610    0.48675087355209
C          -1.75395577343235   -9.91296604534825   -0.72734648568121
C          -2.47255712901562  -11.53173949433669    2.20373703648858
O          -3.36847137367315  -12.19112434233809    1.72386749605032
C          -1.61387789411416  -11.75166745277329    3.35674553641775
C          -0.73570144379298  -10.66415947578166    3.43740094425088
C           0.11503882374779  -10.83603521848090    4.59818493436150
O           1.01288387211977  -10.16014393076931    5.05073803812411
N          -0.31166962731479  -12.05990583877000    5.14931598503641
C           0.26938703038228  -12.56858859096251    6.37034200994028
C          -0.61382846171213  -12.28917981366208    7.58315812628138
C          -1.34209711642739  -12.61617897525730    4.43479949459398
C          -1.94952669092386  -13.84765768933298    4.76410554625862
C          -2.99001449831417  -14.36375261964292    4.05449553816908
C          -3.62981597816666  -15.61448096027506    4.30626875888023
C          -3.24515552223188  -16.54239885543589    5.27893095628631
N          -3.80765982178219  -17.71903417282713    5.47371408632757
C          -4.83349733545087  -18.10878911898579    4.72553447321543
C          -5.36114366935246  -17.25111116893883    3.70852384927789
C          -4.74752688670087  -15.99032430387141    3.49712576778721
N          -5.21599504457750  -15.15881032558888    2.54991572785670
C          -6.23350909802221  -15.55736340225990    1.83889817771099
C          -6.83866174354783  -16.81645452378793    2.04587721075134
N          -6.41065555906741  -17.63795300418507    2.96405179402443
C          -5.40683334383139  -19.40672136700401    4.92644596946774
C          -4.92200372596070  -20.26852758866630    5.85136027981121
C          -5.42490735085205  -21.57418944687352    6.08161486277404
S          -4.66541691593511  -22.57159877509573    7.30913608234354
C          -5.72591890343932  -23.92799873923275    7.02407683493945
C          -6.61108005712154  -23.59141652173519    6.02686423570820
C          -6.45324384857205  -22.29043117430722    5.49755436781221
C          -7.47297435291083  -22.12530779397633    4.45679668256320
O          -7.72623564048481  -21.20458245135121    3.73949995244493
O          -8.18449938761501  -23.30881437838500    4.40712191358996
C          -7.72172569927593  -24.23463033414481    5.32167868058174
O          -8.19864157693637  -25.32194356305636    5.44001158395632
C          -5.64767256937704  -25.16984382658162    7.73349690410961
C          -4.75588900011601  -25.43672789370741    8.68595971915724
H           7.76803261460524   -5.40157740392706    7.61090878131705
H           2.73659649416111   -6.68128374961477    7.63046384435546
H           2.54493378210306   -5.95934244048672    4.65765464260761
H          -2.06983312721321   -8.21803006856209    6.30233016648891
H          -2.09101508154241   -7.04976403104359    3.91991032884920
H           1.52625546771541   -4.02160101688823    3.91150802585069
H           1.28096505843707   -3.17876894962480    1.41627522192653
H          -1.17478179532274   -7.46960616769118    0.62426124390252
H           0.36326830248413   -8.40356542010021    3.11365926699160
H          -2.92393768679557   -8.70446665593019    0.64786711459175
H          -3.58488288051272  -10.32459106708110    0.33446995958756
H          -0.79347069694871   -9.42995815507110   -0.56571386502614
H          -2.22292756489408   -9.46289705008579   -1.59721730091105
H          -1.58191942326892  -10.96751971468904   -0.92913159775790
H           1.22448084541651  -12.05005085290424    6.48817322390868
H           0.46347505832453  -13.63958962018236    6.25969903690337
H          -0.71646015560225  -11.21743964496075    7.73505368848696
H          -0.15715364264491  -12.71762444385045    8.47071994363842
H          -1.60410115212325  -12.72072799533037    7.45444513395999
H          -1.55090511496757  -14.37995520423313    5.61515632488351
H          -3.39521825418219  -13.80859838559632    3.21711976466425
H          -2.41729509139021  -16.33394760282249    5.94356244203885
H          -6.59363751703671  -14.87213230787974    1.08420877941933
H          -7.68212901158848  -17.14508274638736    1.45523240661424
H          -6.24123499395909  -19.66240920142295    4.28934791456877
H          -4.08469759840890  -19.95564185783455    6.46110928033764
H          -6.38659157092520  -25.89984122183719    7.42993206892153
H          -4.01959972637058  -24.70900696417044    8.98787427933861
H          -4.73795507965566  -26.38676207305547    9.18874416640047
