116
 SCF done       -215.105799989622          0.000731683679
C           3.52320253105717   -0.67122978495764    6.99718346896667
S           2.15451236401174    0.07302281627315    7.70062979581894
C           2.65969758891047    1.62533140300994    7.11208273071189
C           3.84808629061203    1.54082321348183    6.42118215665599
C           4.34753408298239    0.21893141322789    6.37017853238600
C           5.68595356226332   -0.13598219097879    5.77793673564139
C           6.55107925926992   -0.54941895745587    6.86601686434180
N           7.23821852278783   -0.85357273842625    7.72627558941820
C           6.31877361224655    1.05668730193035    5.04348267492831
C           6.12471804101973    2.34254130624503    5.84296839717438
C           4.62971798431323    2.70760096034018    5.87763251451757
C           4.21935860073066    3.03397619109940    4.53010458525738
N           3.94854354576576    3.29266995071009    3.44940039459357
C           1.91027746482635    2.82934974640582    7.35904118213345
C           1.62806410378816    3.45470447483934    8.55124236292973
N           1.93371858427436    3.00108826541810    9.84827461831120
O           1.71299984914902    3.76034123925781   10.77365513216681
O           2.41328917617296    1.88635320729562    9.96929501408348
C           1.05160936487662    4.75637287760811    8.28304153875401
C           1.00747073732684    4.94220053064048    6.94358427147451
C           1.47604751540669    3.74198352168869    6.29864313408335
C           1.33777759935867    3.39794300222399    4.97133059249118
C           1.13662079470927    2.08645395877425    4.44602150564065
C           0.78827266517849    2.19704745142456    3.13255862599042
C           0.82660689758559    3.57236898949208    2.74164705087890
N           0.54322882007209    3.95189200771049    1.41858224297583
O           0.43956475173414    3.06339752497175    0.59309838725527
O           0.38504056218825    5.13655934794042    1.16091137131772
C           1.21087481311123    4.34789438071546    3.84425047156848
C           1.76212377894872    5.62648480953116    3.98733979848434
C           1.82790921298156    6.66566549951219    3.09015977216273
C           2.57346292785069    7.81002582941684    3.39975670785986
N           2.62082218946357    8.93742898291165    2.61921361718734
C           1.88329549431186    9.15708340153418    1.39533708516285
C           0.41861560858238    9.48620402816788    1.66676575438853
C           3.43442430902798    9.93250272070015    3.17332935003667
O           3.61866680257288   11.02077087060977    2.66740463462204
C           3.95107211123503    9.33686108441092    4.39587849479376
C           3.41800938238183    8.04739208810143    4.51010158703114
C           3.98339000629210    7.43451664254381    5.70213180050062
O           3.84884554959770    6.32585047677019    6.18710015954996
N           4.81523864565563    8.42050212557309    6.24139283856521
C           5.52161812705285    8.20850428789761    7.48585278562712
C           4.86560144982482    8.93843338040060    8.65407499538669
C           4.81724156155027    9.56811279986455    5.48675757486888
C           5.56948285848372   10.70562779753625    5.80970271454654
C           5.54800318857635   11.83896995116795    5.03592819116849
C           6.21732565018890   13.05407419168694    5.26976444849835
C           6.64398401321719   13.70504597767675    6.44068242520253
N           6.60236820895986   13.30848381357527    7.78836073097498
O           6.86953999133250   14.15624151213409    8.62223585551108
O           6.30702493141887   12.15699312534019    8.07578686089219
C           7.06463823211089   15.03040022958171    6.10834495742291
C           6.89769542140945   15.23612684752785    4.77144062435067
C           6.39734509928598   14.03605471912442    4.18305864538515
C           6.26498800105488   13.77880107878942    2.82933304400013
C           6.41733919683925   12.52213193132146    2.17987053064448
C           6.45040411867891   12.73147412649699    0.83532226082898
C           6.27378633883094   14.13114596173658    0.55945584857834
N           6.18457212319374   14.56104462876293   -0.77354639824768
O           6.07975345871177   13.69627420908560   -1.62598741633406
O           6.22300366615241   15.75641664824154   -1.03790322436949
C           6.12804523062654   14.81232224982876    1.77058899780666
C           5.72065946455327   16.12258087470074    2.09864558315238
C           5.79967389720453   17.23295215703312    1.30991485224550
C           5.35907927459813   18.51417808649289    1.69543711236779
S           4.60908877140705   18.84341736051102    3.24359209226024
C           4.44577802202092   20.49717432266088    2.85204847761656
C           4.93454597616389   20.80383883201141    1.60976846873284
C           5.44398957206572   19.67719446752592    0.93903211074994
C           6.07383934639665   19.76313395372225   -0.42220440389972
C           7.51037003501447   19.71336259082148   -0.22685122222829
N           8.63601570214839   19.70379186432933   -0.03357413869282
C           5.68261952019694   21.07041822585605   -1.12822723097906
C           5.87608751423694   22.26138658531141   -0.19384794151757
C           4.89946099009212   22.17423163510270    0.98922327655091
C           3.54376417680205   22.41804763175352    0.53668460342759
N           2.47455326126899   22.58478825404731    0.17108380990640
H           3.66330268312829   -1.72956377282581    7.09892458249425
H           5.58453296034457   -0.99000953031316    5.09673337803233
H           5.85220243399778    1.16486400633514    4.06136310718569
H           7.38315230379353    0.86415153799562    4.89447589608796
H           6.68877959450078    3.15675993361858    5.38460810700817
H           6.48510063628079    2.20481337516229    6.86497477040727
H           4.45830979407570    3.60175308800369    6.49003738205495
H           0.73291868370401    5.42729320607652    9.05755698583344
H           0.58349870035843    5.78346656686063    6.43177733246165
H           1.14730133706738    1.18379028804912    5.02537701601090
H           0.52147339183175    1.40312607287094    2.46013072798633
H           2.25521275967919    5.77924128444106    4.93689011361837
H           1.30711072861187    6.61163735510979    2.14669975766842
H           1.96568348897431    8.27189050179456    0.76053953227596
H           2.36702797785855   10.00124970673537    0.89676728746449
H          -0.08045664427634    8.65712489464957    2.16220088996426
H          -0.08826342867899    9.68274793267338    0.72681050500736
H           0.34177107921356   10.37059652303116    2.29509800474590
H           6.56206298688459    8.52268913198346    7.37160233665169
H           5.49569456978475    7.12954411131889    7.66159389721125
H           4.94177989173281   10.01634066172879    8.53983360162961
H           5.36346090274171    8.65693879568238    9.57727910184992
H           3.81678550396863    8.66085782744042    8.72860776732803
H           6.18043783681176   10.66955109285058    6.69611403121511
H           4.96324610088820   11.81152942706573    4.12452400892771
H           7.45174229183932   15.72380086119468    6.83094179744156
H           7.20852144657911   16.10759148926301    4.22903619619490
H           6.59870985750400   11.58786367780440    2.67238128314758
H           6.59477858888294   11.99780175022335    0.06461936886119
H           5.31359988203582   16.24441034817738    3.09525416480351
H           6.24289877690825   17.15073511189242    0.32905346394527
H           3.99447866409675   21.16756203900045    3.55758428994927
H           5.79062303847013   18.90024603578934   -1.03628160779839
H           4.63602574210599   21.01014470114193   -1.43635911991454
H           6.29532933190010   21.19467738340120   -2.02264505022666
H           5.70733897297132   23.19356798526027   -0.73588080947673
H           6.89997353648185   22.26742798342940    0.18805504224723
H           5.13975149962618   22.93568033490364    1.74092741488160
