98
 SCF done       -170.752070426046          0.000793072507
C           0.05660370017292   -0.81524280632402   -0.12460133083402
S           0.05111769448765    0.72039954652482    0.63271795778273
C           1.18550916613390    1.34580247846228   -0.53328534576605
C           1.53617921572078    0.37596091184663   -1.44654185296823
C           0.87724739236552   -0.85582706956715   -1.21086954215700
C           1.12943992519568   -2.09239419460207   -2.03317569073061
C           1.95566918129387   -2.97852722355928   -1.23766558872489
N           2.62453398826129   -3.65197304787930   -0.60124059209864
C           1.84507125166575   -1.75240460844189   -3.34826730142537
C           3.01736807410407   -0.81454512441141   -3.07747349850020
C           2.50291647792322    0.54767546331240   -2.58645812732309
C           1.80445886070497    1.21256249660077   -3.66866572097018
N           1.22446012839896    1.70858255487447   -4.51947003769315
C           1.62436545805683    2.70419654752316   -0.42369487580375
S           1.53908697673080    3.51209759734977    1.11896899774425
C           2.17666000991453    4.98886436502016    0.45828244435201
C           2.45024504091927    4.82826699199148   -0.89716719658955
C           2.13034051349135    3.54281063600733   -1.38451530000318
C           3.06277397909501    5.78103068214036   -1.72984125525429
N           3.60668955602131    6.49000394095873   -2.44957606415879
C           2.32586951809538    6.11379255776669    1.31272004174085
C           2.54454060579250    7.38030582293304    0.88036293329036
C           2.66988594920227    8.57131794800976    1.64250497875147
N           2.89668109447652    8.74278323400491    2.99715479737555
C           3.22746984642392    7.74779694188046    3.98897135469859
C           4.57113567355862    7.07926162024268    3.71352918515672
C           2.92950511696290   10.10289105071454    3.34607551517589
O           3.12793428713285   10.50021126461550    4.48547616013045
C           2.68242996209929   10.80814337648502    2.11804014226181
C           2.54184532629320    9.83985518186178    1.09229473051213
C           2.26253052481463   10.53194235059308   -0.14720620096649
O           2.05110095551020   10.14285288004638   -1.27337293353006
N           2.27704871469925   11.89843004321212    0.21683268867613
C           1.99833390246247   12.93037936021851   -0.75235696034762
C           0.55709582581238   13.42492692470755   -0.65798528366000
C           2.51230773321830   12.07328541976941    1.55550412309253
C           2.56096834661147   13.34633915828715    2.18492632773746
C           2.79604794635875   13.44360802286841    3.51186533113577
N           2.85321095565489   14.60827519609315    4.23185941351250
C           3.14093680595421   14.64537107522245    5.58862099592027
C           3.42713627397173   13.43827056569765    6.38743157082658
C           3.11040411573774   15.95011637576691    5.99183003273362
C           2.78477798920712   16.78128548267113    4.86142817136820
C           2.61386979322239   15.92934654414761    3.71418414823336
O           2.33808135439768   16.17392392182556    2.56378654813780
C           2.73392443465887   18.08266826434139    5.26690865476822
C           2.40069554629992   19.29000821976602    4.48550397760223
N           3.01983306372346   18.11419210123028    6.62029355681054
C           3.26338293211888   16.80577172651754    7.13895123316352
O           3.52049137427779   16.58780568506268    8.30196441486222
C           3.10977131341918   19.26573381745373    7.39284896862220
S           4.14748144872702   20.58331517933653    6.91124378157806
C           3.68363266694021   21.48623062583430    8.29471503150286
C           2.80959365943034   20.81242579480059    9.08681210558545
C           2.49367681272298   19.52141317691590    8.58689226426167
C           1.50936296770209   18.60295221055060    9.26066191757576
C           0.35687838074010   18.51893514371038    8.39156407774788
N          -0.52973911848256   18.48770313445032    7.66996238991628
C           1.12484219839540   19.10526562225337   10.65989042706838
C           0.88728812069115   20.61178756946374   10.66023202420232
C           2.19964719386598   21.34890252942029   10.35275672188400
C           3.14655618769923   21.16454740664248   11.43392122531566
N           3.89772395897404   21.00759960653352   12.28009822419328
H          -0.54392909261435   -1.60784800139283    0.27592862144157
H           0.18407521527971   -2.61050741364844   -2.23473349510212
H           1.13822251783474   -1.27113869081005   -4.02868145241405
H           2.19987267690178   -2.67199707738173   -3.81771483529953
H           3.60220089404629   -0.67262099017030   -3.98828408015033
H           3.66923098318490   -1.24797047734305   -2.31483624972463
H           3.34302537705332    1.18220429386132   -2.27769079257828
H           2.23505208847226    3.28587378266905   -2.42283366121004
H           2.19099517118418    5.89907117424784    2.36216894248349
H           2.57323601525842    7.56730314411938   -0.18568773553328
H           2.42580360733131    7.00790249909912    4.06555946521918
H           3.27668301131328    8.29334015564092    4.93695582309534
H           4.56548641851068    6.56441987126909    2.75572375563182
H           4.78959785074125    6.35908231773921    4.49743182100841
H           5.36075778754105    7.82667246643478    3.69802945912974
H           2.16664610743517   12.47502405177039   -1.73240106717790
H           2.70060257728702   13.75744004591464   -0.61880951739201
H          -0.13016091047131   12.59631241524826   -0.81124361148244
H           0.37603306656098   14.17346163608919   -1.42416103338193
H           0.35942339184365   13.86768320976168    0.31542735779397
H           2.40445683105660   14.22751526638831    1.58563851226947
H           2.95453249282163   12.54529158713858    4.09445412632372
H           2.58776435183227   12.74304331213544    6.36308257614963
H           3.62308300794336   13.73155450004798    7.41509740253594
H           4.29242177525861   12.90549010932838    5.99267278523943
H           2.00386203640340   18.98645092742810    3.52068279086625
H           3.28718521179561   19.90339745385556    4.32253403751985
H           1.66408556823332   19.89383979426797    5.01492328969215
H           4.08173748307858   22.47116234796264    8.43817889915120
H           1.94314978094726   17.59773138702122    9.34105386349835
H           1.93391060980726   18.86604274668544   11.35398465981607
H           0.22533784447606   18.58374354641561   10.99287252457746
H           0.50921310837099   20.92962806831232   11.63375328394553
H           0.14534218421779   20.87267248081506    9.90109468862432
H           2.02060460895024   22.42651778733693   10.25307995793563
