106
 SCF done       -206.552039095204          0.000893050249
C          -3.17716698574630   -3.36245325037810    2.91816002713151
C          -4.40518672571367   -2.73119708533194    2.83881770501467
N          -4.88393606194819   -1.89190623586620    3.80996166334435
C          -4.20723917376100   -1.62465834774179    4.87451570009976
C          -2.92793055331584   -2.20011631873829    5.07642064683514
C          -2.41412888667232   -3.09189649262073    4.06312953833789
N          -1.22236659033624   -3.49731844161260    4.47478013594242
O          -1.01932717756189   -2.90396723218750    5.64376797218251
N          -2.02065753661914   -2.12442535258918    6.02989868637143
C          -5.32098081172351   -2.88039369118536    1.73299557545563
C          -5.10119517669553   -3.62519838625848    0.62600751252988
C          -6.02479075035014   -3.78848750042045   -0.44202284415158
C          -6.15024889351960   -4.91033022509214   -1.24743483754066
N          -5.33307693348044   -6.05695500791951   -1.28248951927235
O          -4.35798982233225   -6.10614513555931   -0.55042261044298
O          -5.64945062846294   -6.93985542054966   -2.05820866140066
C          -7.32569263209032   -4.78297057032629   -2.06931591107095
C          -7.94028188355815   -3.61098044054481   -1.77247181997582
C          -7.14080586565088   -2.89586613116552   -0.81426421470489
C          -7.27699023416195   -1.56280573536843   -0.50198465528306
C          -6.23563017223581   -0.64733004840509   -0.11080427883237
C          -6.72727673645101    0.61358630369524   -0.14974199116333
C          -8.12222512279338    0.56070409174186   -0.51653537289460
N          -8.94831247917128    1.70225802737680   -0.44454864295083
O         -10.15810215322278    1.55491701402290   -0.50625122325196
O          -8.39771407209331    2.77437756051581   -0.28335433581480
C          -8.48662574721474   -0.75528491578823   -0.74433257853729
C          -9.77149967715365   -1.29513680129959   -1.03766447441464
C         -10.64577899665928   -0.75107684971965   -1.92009253254247
C         -11.94572532806350   -1.21953962984026   -2.24070278402566
N         -12.83362365741243   -1.88740673221174   -1.43892523854901
C         -12.77171454121383   -2.04814637755880   -0.00190939508428
C         -12.79838810745640   -0.70073720184250    0.71262940775782
C         -14.03105960714158   -2.18669634561317   -2.12665016261557
O         -14.96072473322177   -2.78145740970605   -1.62750355330620
C         -13.82232227936879   -1.66616348539633   -3.46314949553226
C         -12.54488149325304   -1.07735622981373   -3.49666805560596
C         -12.29783370127736   -0.59835219687950   -4.84266575752415
O         -11.34820842406807   -0.05141785829978   -5.35214424367547
N         -13.48592240266363   -0.92105169566823   -5.53891242666808
C         -13.62592995287517   -0.63131141454800   -6.94621912179052
C         -13.37402601265014   -1.86706791355817   -7.80727354945222
C         -14.39904962628339   -1.54869214511124   -4.73440894536934
C         -15.68303192891403   -1.96708491106247   -5.16041757936011
C         -16.62052673147513   -2.42693403680373   -4.29229084255154
C         -17.94997036097848   -2.78400020904293   -4.67755758343980
C         -19.08139361655449   -2.26103410774473   -4.08105736789689
N         -19.10007349155890   -1.28797445823241   -3.06241612362115
O         -20.18136862220594   -0.99504783888238   -2.58886728072869
O         -18.03775884142209   -0.78939588202296   -2.72821157605594
C         -20.26074200877798   -2.71180175189355   -4.77483881709857
C         -19.87285052434973   -3.54898761097970   -5.76173174094208
C         -18.43389471484431   -3.71327929597728   -5.71564579510752
C         -17.68585651031664   -4.64745123355052   -6.39294660773372
C         -16.24872277033806   -4.70497959264551   -6.47493613885060
C         -15.89731752167796   -5.47380910735209   -7.53307451772037
C         -17.08875388915127   -6.02306904701802   -8.12511220034879
N         -17.03763938393417   -6.90347431521759   -9.22024982359254
O         -15.93680754322687   -7.15436861482720   -9.67807563036919
O         -18.08178689841425   -7.35569422000638   -9.66475558503096
C         -18.19527477875803   -5.62891594383278   -7.38295582088326
C         -19.49091700158105   -6.18958404343428   -7.49391875323651
C         -20.34467641355988   -6.36057505850679   -6.44804100837659
C         -21.62199343604005   -6.99020101505149   -6.52160188757948
C         -22.44073835701080   -7.12108616145151   -7.65759103972932
N         -23.54513662599129   -7.90613824591064   -7.68331951120180
C         -24.01553339101291   -8.50273245873478   -6.63894304863309
C         -23.39879118070309   -8.30829327813673   -5.37840043596596
C         -22.16849985932720   -7.55986252803035   -5.33858775014055
N         -21.75734529648520   -7.55383683795579   -4.08496023318839
O         -22.66932064642560   -8.23794313825616   -3.39727354344666
N         -23.65736678091381   -8.70287687207379   -4.14725062980523
C         -22.19524727135577   -6.38378363265988   -8.88397449591487
C         -22.70591456268349   -6.74647448849116  -10.05875182219707
H          -2.81046492574207   -4.03698293515660    2.16419927801177
H          -4.64517631647943   -0.95488538866099    5.60021825872547
H          -6.25369074776951   -2.34998789672745    1.86570457513796
H          -4.21028871825367   -4.23427976455508    0.55154674231071
H          -7.62530109571065   -5.51994107806524   -2.79003528711512
H          -8.79806320876256   -3.20536811972767   -2.27197004353182
H          -5.21987706807902   -0.92877988370249    0.08153893790567
H          -6.20894280357086    1.53020253430605    0.05781470733863
H         -10.00293722450004   -2.23413345351644   -0.55351106367409
H         -10.32216958267882    0.07309700891866   -2.54216388527134
H         -11.88757137832385   -2.62383256548691    0.27878956766444
H         -13.65842769226675   -2.63089830633142    0.26455509274964
H         -11.96625300022907   -0.07170365042163    0.40488853892725
H         -12.74314369362348   -0.85697016448833    1.78610946014010
H         -13.72483022155349   -0.17875742406111    0.48665101043648
H         -12.87519843071089    0.13044821552818   -7.17342637706648
H         -14.61863491346665   -0.21560967364067   -7.13725112853768
H         -12.37303949681344   -2.24925961171739   -7.62345842318467
H         -13.45461250146621   -1.60290383826848   -8.85769054667899
H         -14.09220698677185   -2.65496005302131   -7.59034453392306
H         -15.93350653065749   -1.85119884123977   -6.20615841567096
H         -16.40553461548849   -2.41994301246918   -3.22864669354829
H         -21.25245311723868   -2.37989659572713   -4.53528251848379
H         -20.51495327523336   -4.00680482314071   -6.48609402568853
H         -15.57822058082177   -4.19184137891394   -5.81744468319640
H         -14.90902856240971   -5.68778255349469   -7.89416788774309
H         -19.72188789423583   -6.65004642239086   -8.44603108463660
H         -20.02620934423796   -6.10486329540150   -5.44506709454839
H         -24.87272721186395   -9.14780691248811   -6.76140738555189
H         -21.58937816426549   -5.49283832053700   -8.79602907547798
H         -23.29479746518574   -7.64253513044007  -10.14901500303406
H         -22.53207391996294   -6.17193747693540  -10.95140717173109
