93
 SCF done       -184.517581957501          0.000365198632
C           4.55433064275449   -1.24126261678497    0.09917357658995
S           5.28823010101917    0.23470070289906   -0.35016816760659
C           4.07075301864968    1.15796287366569    0.47659223129737
C           3.14045374159338    0.32608408453157    1.05228680266394
C           3.42774070933250   -1.04869966423313    0.84021019009740
C           2.50426479500001   -2.14449554105658    1.27616331964316
F           1.76329656386456   -2.54292743617486    0.17293701860931
C           1.53092613422381   -1.65357176084982    2.35393224901020
F           0.58395304496534   -2.61687769622451    2.57207944932095
C           0.88478021321482   -0.35124156328131    1.87351086420821
F          -0.13089655457032    0.02705112528686    2.70857284045143
C           1.95137561826235    0.75057241799260    1.85628010084396
F           2.35452323419610    0.97404449775798    3.16510547953266
C           4.14419837823544    2.60822727471492    0.45915209252141
C           3.76759454124447    3.37914192313813    1.55287681960361
C           3.84169946540086    4.76448101789177    1.49800947516086
N           3.38432426231801    5.47307819877864    2.66674744191537
O           3.43631423354961    4.88990868154334    3.72677762840189
O           2.96671019357138    6.60624100295020    2.52681503699789
C           4.31625939801099    5.44148882769809    0.35776425020647
C           4.71446241997746    4.63952154527305   -0.72244635929017
C           4.62973221152834    3.26918349021666   -0.67769181283611
C           4.46195380342489    6.87812600673640    0.31764993573989
C           4.44372200934199    7.60139329568479   -0.82089419939361
C           4.57631079223044    9.01093632503453   -0.98174474472335
N           4.49271451089644   10.01975620779074   -0.05183520660828
C           4.20245400066898    9.92977581598731    1.36051512546066
C           5.47557798385782    9.76965459943145    2.18965544917426
C           4.68958447329770   11.28544192636313   -0.64053294827513
O           4.64306413844401   12.32705136287490   -0.01396195258467
C           4.91366072639952   11.01011955282607   -2.04001185266606
C           4.81846250371611    9.60765399660220   -2.21371382087157
C           5.04814153350960    9.30419566682410   -3.60681413499607
O           5.07302175002202    8.25717042991659   -4.22041311803075
N           5.27127022769964   10.56399276973518   -4.19651711759644
C           5.48487790232270   10.69443536761207   -5.61667973613065
C           4.22557638588713   11.16487857932074   -6.34100516403427
C           5.19494160382023   11.58728098407900   -3.27680899728149
C           5.40739843671318   12.95084552388013   -3.59783167898704
C           5.29858338273701   13.93808449625495   -2.67153082347582
C           5.52366195461945   15.31551631565206   -2.92890783742250
S           5.31014126074836   16.46654890922736   -1.63292282627480
C           5.75051396714835   17.79264446445593   -2.65453649961773
C           6.04574179783182   17.34747253206109   -3.94961966930872
C           5.91596327530331   15.95531766160072   -4.08479858365863
C           6.40393874651190   18.21487506267089   -5.06212831086261
O           6.39844023920882   19.42207282065143   -5.06266041391143
C           5.82410629960338   19.13479548118732   -2.19833080905884
C           5.34031939598268   19.54822671850419   -1.00618371980375
C           5.36368991425639   20.86890424257455   -0.46835404698959
S           4.80825703617501   21.05029692279413    1.17485236080527
C           5.12744317868683   22.72533165284485    1.16415991169091
C           5.63011017971261   23.14152645435906   -0.03473861920019
C           5.74882395857065   22.09528224126344   -0.98301126115300
C           6.33245899323442   22.34358979214794   -2.34138054672111
F           7.64750480048219   21.89904309335747   -2.33405995271935
C           6.33687797936987   23.83750256924544   -2.69723548666931
F           7.07617855007330   24.01632294156451   -3.83433385459778
C           6.92750189365790   24.63986456239805   -1.53665114701526
F           7.11395295010130   25.94952811855766   -1.89026177445764
C           5.95094847719121   24.56734676795880   -0.35962034784535
F           4.77709398036652   25.21191912733531   -0.72130741362318
H           4.98335078211845   -2.17194372141285   -0.21406452781706
H           3.04086570844545   -3.04008361225716    1.61043760695559
H           2.04739031478335   -1.49262727979309    3.30861062268197
H           0.44428903601894   -0.48815036825514    0.87777644554354
H           1.52218595124273    1.69801336258851    1.50840891982650
H           3.43477795464243    2.92634235472239    2.47387431369207
H           5.12036070311944    5.11409489080357   -1.60142001003346
H           4.94125437416516    2.68513340510942   -1.53081354149853
H           4.57795636251030    7.37090029261860    1.26787896566985
H           4.32279016237121    7.09849449263262   -1.77228241279164
H           3.49876650672098    9.11503328827565    1.54037586549085
H           3.72179460923554   10.87418213974166    1.63324780892616
H           6.06110360084210    8.91490308900598    1.85660232590586
H           5.21567114468061    9.63240215948831    3.23539520712752
H           6.09032839318714   10.66150201384093    2.09605011427559
H           5.76042720875936    9.69721337068311   -5.97149580197246
H           6.32009099578599   11.37603655431456   -5.80286235371277
H           3.41993151664445   10.45238316322874   -6.18266287841093
H           4.41928395063136   11.23855783933050   -7.40753839484925
H           3.90306502897015   12.13687654744145   -5.97396306639046
H           5.67050679668643   13.19136099883238   -4.61714411362715
H           5.02452270447322   13.67841985297187   -1.65718450398422
H           6.10274394950243   15.44180571840235   -5.01086200926658
H           6.68545488396475   17.65015872102099   -5.97184306037752
H           6.30190585951267   19.81098276246001   -2.88838991510749
H           4.88269777275021   18.81003833402807   -0.35686497480155
H           4.93046201006933   23.32094778645502    2.03307514482336
H           5.82694591557170   21.78238355762803   -3.13585793449451
H           5.32110237527812   24.18818786021426   -2.92008366339364
H           7.91107792436634   24.24221545959193   -1.25647058682770
H           6.33525414273374   25.11791222115746    0.50682571483263
