65
 SCF done       -124.195604073062          0.000773403238
C           1.60243680436817   -0.66170050767665   -4.38511413159157
S           2.24577441083285   -2.25618865544830   -4.14908975126726
C           1.19151144465568   -2.30639274854988   -2.73693830773745
N           0.50799741012511   -1.21449060553052   -2.58443259636505
N           0.74078794925328   -0.30494582712665   -3.50369999724258
C           1.10482852995366   -3.42614335553860   -1.86032949226350
S           2.03285102582189   -4.87005304874582   -2.10297238967638
C           1.35610872191600   -5.60922459905067   -0.68606512341458
C           0.44268020976616   -4.74284106873675   -0.07306996951580
C           0.30778955467421   -3.51509637309973   -0.74237807414673
C          -0.29242702699687   -5.03595207101435    1.08777239977997
N          -0.91052657866400   -5.24486039267404    2.03232075154179
C           1.78112602341398   -6.91387319708046   -0.33561034424235
C           1.38193302985092   -7.60115492645903    0.76754578091682
C           1.85696230709031   -8.90265719447822    1.05863159673769
N           1.47764562119264   -9.61859648010334    2.16902268698901
C           0.52110086221724   -9.21554460856908    3.17338137999569
C          -0.91738070250969   -9.38342406653299    2.69226653183570
C           2.10491869651189  -10.87432870191245    2.22512044718112
O           1.92752175889561  -11.67919141477686    3.11650022865783
C           2.94117601201122  -10.90984902855567    1.04378496097435
C           2.76660208295706   -9.68860053287226    0.34875596739347
C           3.60813271673839   -9.72234890560711   -0.82600185112346
O           3.79117220157486   -8.91957332569147   -1.72168732536421
N           4.24173489122622  -10.97336796217951   -0.76503085598253
C           5.20732432214796  -11.37072567640459   -1.76083532801768
C           6.64113187495645  -11.16686740549301   -1.27741967647332
C           3.86034610921885  -11.69127031093569    0.34725802494360
C           4.35189336223215  -12.98042771454319    0.66266358196208
C           3.94393047840853  -13.67673895580502    1.75681529142180
C           4.45355144497702  -14.95806849971657    2.07929035259449
O           5.41808333515357  -15.54249592024676    1.33239501530792
C           5.72163367422467  -16.74370032470962    1.86965944932668
C           4.93134968974759  -16.95871065811149    2.99925676324594
C           4.11201960974638  -15.80394328291909    3.13547012380433
C           3.15180322149252  -15.58086280769009    4.13267680215361
N           2.37193020591684  -15.42887112347350    4.95835298216937
C           4.92461162633808  -18.07542922934561    3.84563011505635
N           4.90646454860365  -18.98432481642082    4.54471460936882
C           6.72933931157314  -17.52775717388578    1.24500538405143
C           7.14649047460054  -18.73802998824391    1.67392419243063
C           8.17204460948034  -19.45999792802324    0.99534535257175
S           8.72559209647680  -21.04059492796513    1.55037012988719
C           9.80952370477859  -20.97434399691950    0.20072724309112
N           9.70930929415170  -19.90431707357921   -0.50512950495123
N           8.80272049077921  -19.06190313297895   -0.06773391859986
H           1.90918370847799   -0.04297461913193   -5.20341313463027
H          -0.34302275873945   -2.71935766534925   -0.42849505027411
H           2.48573955983048   -7.37574696087351   -1.01629098687975
H           0.68640310482537   -7.15501002975139    1.46109271967503
H           0.71139026777161   -8.17982877457116    3.46688278408336
H           0.69800695493441   -9.86646523624336    4.03411172428532
H          -1.11466152452365   -8.76174610998004    1.82193000724935
H          -1.60124154948387   -9.09495323417788    3.48497745992573
H          -1.10417886002067  -10.42217417000796    2.43076524878305
H           5.02183124586792  -10.73521013562498   -2.63140318191227
H           5.03438884068595  -12.41302509716228   -2.04274075368376
H           6.80739008224778  -10.11817102671066   -1.04362894742189
H           7.33745631345274  -11.46364138969804   -2.05677412548460
H           6.84149344348316  -11.75581071253593   -0.38509828722573
H           5.08225180963805  -13.42405320078170    0.00069305056888
H           3.20676097892956  -13.26854674867470    2.43536352988178
H           7.18358061662616  -17.09724255747842    0.36356665566690
H           6.72029357260224  -19.20452172353327    2.54952175464165
H          10.49855275145138  -21.76527006239760   -0.01545997470892
