86
 SCF done       -173.597026648948          0.000715083780
C           1.96055647452048    0.71168006563269    5.83249028354906
S           2.93811046782666   -0.59956969032958    5.27554563624575
C           4.41825031948812    0.35162787863861    5.25228934091874
C           4.10502099140809    1.61075939327159    5.67404720096969
C           2.73803773829641    1.80981480277001    5.98923699999087
O           2.58668344023757    3.10974394628531    6.35635627676891
C           3.81805473211762    3.69724355592376    6.25606139249575
O           4.03395313629657    4.83668221989186    6.48503188313262
O           4.74520870470132    2.79716262276714    5.82994723153109
C           5.68717829895186   -0.21775030060356    4.90786411375073
C           6.88154196191385   -0.08950094983731    5.59364015501111
N           7.11935674309141    0.59999784627504    6.79964458859378
O           6.16452928181309    1.05088372178933    7.40839878608593
O           8.27323462373467    0.67018896003171    7.18074260255827
C           7.88897533513615   -0.88919613387448    4.94235688377767
C           7.31202613356000   -1.54773693712278    3.90830007686814
C           5.93071821346734   -1.14672857247159    3.81434444389195
C           5.06084730925590   -1.41658166682522    2.76911856859566
C           4.07087321387806   -0.53633324350514    2.25910265961819
C           3.62887413347819   -1.00687147787430    1.04883470179569
C           4.26056432730382   -2.24547162283871    0.77248540874449
N           4.01395636787431   -2.98765100930117   -0.38508629153287
O           3.16056491296930   -2.57323763668510   -1.15255210733813
O           4.67168705784311   -4.00424550709875   -0.59010480000134
C           5.12197979039327   -2.56749483540298    1.84654259035014
C           5.71194782313254   -3.80666175016561    2.05048156888883
C           6.27146991170791   -4.27589054011491    3.22843035603475
C           6.94159583880386   -5.47943536406040    3.38440216575954
S           7.27882896885433   -6.00712760088024    5.01572377746108
C           7.96178325728987   -7.51114186321638    4.49501221818189
C           7.96381898304757   -7.59153276890990    3.07584337594293
C           7.42283138459188   -6.43995502706157    2.44261717553572
C           7.44229541692204   -6.35594764665925    1.04682639816829
C           7.91425280605544   -7.41006961832036    0.28886560800644
C           7.91934521849426   -7.33224827580142   -1.20190243824637
C           8.40652625936389   -8.55908232034773    0.92945573206952
C           8.44777291402522   -8.65096331809117    2.29713170509257
C           8.43825840969544   -8.47089771994139    5.38962936445906
C           8.45864593628198   -8.31648320339098    6.75337286621292
C           8.94067790967900   -9.26746753167117    7.66603728556963
C           9.01052140605567   -9.09832322710652    9.04510934806624
C           9.56515437137885  -10.25722405513421    9.63493857817603
C           9.83383915107716  -11.19013524578116    8.52451077064922
C           9.46262146442795  -10.59118916976705    7.36323157511390
C          10.37565264565783  -12.47797520642766    8.61578026997424
N          10.81379113119378  -13.53922607972630    8.64404560240820
C           9.82964942793479  -10.48377996813705   10.97335636683588
C          10.40522456744375  -11.63453877647518   11.56665699040613
C          10.51892414049303  -11.44080041013508   12.93073147226384
C           9.99150328232074  -10.11667121731412   13.23507828238894
C           9.57598937028436   -9.53765790350392   12.07936070436984
C           9.00712562320405   -8.26333211465119   11.98068432135426
N           8.53906679339007   -7.21512233828115   11.93347652790141
C          11.05838342502338  -12.36872288547029   13.85528725706019
C          11.18314327527153  -12.14703653978409   15.18912719587625
C          11.73414157559654  -13.09965402436911   16.08443635427160
S          11.89087780633243  -12.76816107032803   17.80227817123513
C          12.59581973630340  -14.30039549891241   18.16646251067172
C          12.70078028788015  -15.02246592528190   17.02173763418395
C          12.22616917825778  -14.36405764208568   15.86554353912465
O          12.39618157738000  -15.20538058703871   14.80911714883833
C          12.95779379032781  -16.35088749933926   15.29875524382290
O          13.23950573584876  -17.29309152142820   14.64364394816283
O          13.14996795843006  -16.25112799559196   16.64489497654776
H           0.91403376111393    0.57620419628192    6.00559064491673
H           8.91151028716749   -0.92616149129414    5.26467707342758
H           7.80737166767772   -2.17812454456112    3.19570208405149
H           3.81780030862831    0.41327760807171    2.68788835482289
H           2.93046088711489   -0.53121508435555    0.38600186111397
H           5.62165965686910   -4.49132025607581    1.21998409040839
H           6.12824875538819   -3.69241258039916    4.12998375208076
H           7.10769354411568   -5.46779512480927    0.53931220352943
H           7.48425789623055   -8.23348462146056   -1.62990696338743
H           8.94264868746714   -7.25404870733835   -1.56931893122416
H           7.35753180121799   -6.47012709901716   -1.55016107241196
H           8.77291913719925   -9.37622805703717    0.32623606389462
H           8.85145372491188   -9.53267370647081    2.76921303546396
H           8.81916268915078   -9.38528867825483    4.95857807883836
H           8.08775201915525   -7.38940285394358    7.17391668473463
H           8.70000611681667   -8.22095797126877    9.57761506949026
H           9.53745954751568  -11.02664168411206    6.38449249629534
H          10.70884962623769  -12.51529524745348   11.03556215076437
H           9.93883600820806   -9.67423645517315   14.21186608103054
H          11.39267664738417  -13.31367764044388   13.44750296707439
H          10.86443218655749  -11.21563215697944   15.63286063624814
H          12.87482258143355  -14.55346182177084   19.16733306918949
