66
 SCF done       -123.859990866289          0.000368790092
C          -1.03275360328512    4.41494077467455    2.05803275756294
S           0.46293810752491    4.62164885914622    1.24070739012372
C           0.68402619361291    2.90948004046655    1.07980468603794
C          -0.38064766482790    2.22746195683402    1.64720928514642
C          -1.36421845805313    3.10069316532859    2.20978918398558
O          -2.49278622613885    2.69316885368690    2.82155361606889
C          -0.54335967756449    0.83664554612541    1.70229064535497
N          -0.78266156417116   -0.28218602945559    1.80305829765926
C           1.84091466921630    2.38349117668421    0.43605845945784
S           2.08709637442802    0.68252149277996    0.20440701013840
C           3.60157566353190    0.96844763076880   -0.58129412454036
C           4.32959694339594   -0.14528109913569   -1.15682851572860
O           5.22987268850614   -0.05224858765844   -1.95316259387213
C           3.89831628772133    2.32575499022252   -0.64441319772206
C           2.89262409175289    3.11773923751616   -0.06964263617603
C           5.17488217836837    2.81972167506499   -1.11621569328381
N           5.35176282665328    3.88363222583401   -1.96259427422117
C           4.32968641269380    4.55290261204345   -2.72909606126680
C           3.67802517357305    3.61560045810185   -3.74110922670402
C           6.72306675810609    4.14044324458316   -2.18201315785996
O           7.11939347800286    5.03127777764512   -2.91156007417593
C           7.40667632463427    3.16751492322095   -1.36820057846038
C           6.41311786628797    2.36772124674123   -0.72975857402986
C           7.07852685153917    1.38351901942147    0.09221867133225
O           6.65921848034110    0.51416494287345    0.82572430775851
N           8.44722613492597    1.63803297439715   -0.12032952716385
C           9.45932936533860    0.86089774486722    0.55162739172197
C          10.02825379570785    1.59343482250307    1.76501729668326
C           8.65316351029577    2.69520877387284   -0.97788962847878
C           9.94643024002104    3.16339996118484   -1.35173637816234
C          10.10938696031445    4.22500194471361   -2.16895392486226
C          11.36645088616257    4.78829863576865   -2.59830451919173
C          11.35382799406287    5.84973915925895   -3.50551419288618
C          12.54633253802962    6.42275261924407   -3.94023748332511
C          13.73497431068351    5.88515336970731   -3.42370019158450
N          13.75953552961847    4.88728202942160   -2.56236843744176
C          12.62508620170524    4.35308983898265   -2.15895109567211
C          12.54039345090880    7.52132201275461   -4.88109135083709
S          11.02499032253619    8.15964117987607   -5.47501815106557
C          11.81142841088668    9.31559768050568   -6.44387096680834
C          13.17488658996598    9.23605324807658   -6.33448769179533
C          13.59845282080862    8.20561714401844   -5.43623560990950
O          14.89731486384149    7.94322405919930   -5.17094461822836
C          14.09559769147789   10.05287875197326   -7.01026863013357
N          14.90607268845611   10.68116299825490   -7.52562926310910
H          -1.59379749203359    5.26486455969874    2.38713820215756
H          -2.54066916954672    1.72749268281312    2.83165303639334
H           3.94792390002720   -1.12831804363555   -0.82350818334575
H           2.94109190842230    4.18883820216488    0.01662679075866
H           4.83893854546189    5.37071214581094   -3.24724040922788
H           3.57394797662199    4.97553223042394   -2.06096887491270
H           4.43194920453197    3.19841390851024   -4.40398619078700
H           2.95163019974804    4.16222610991435   -4.33618953932838
H           3.17134738402692    2.79532497780654   -3.23714141958981
H          10.25206211940162    0.59968088349344   -0.15503212331292
H           8.96414280345813   -0.05802253577868    0.87803180894551
H          10.47537957485030    2.54199544739463    1.47546185296351
H          10.78676116818727    0.98016363602199    2.24368279094388
H           9.23616089551921    1.79059269827756    2.48325179190166
H          10.79958253017710    2.63300748928297   -0.95606033594560
H           9.22734293780266    4.72043415614351   -2.55395885954347
H          10.40542677036512    6.22130872817131   -3.87001584279085
H          14.69700692959178    6.27651151668131   -3.71535778804121
H          12.72744053069125    3.54468758245309   -1.44848779184495
H          11.24747018359609    9.99861173652171   -7.04767209763674
H          15.46448661749421    8.54402680567808   -5.67391544811131
