73
 SCF done       -139.355246505179          0.000613256876
C          -4.81516190555523   -0.07120969706397   -3.59383291278956
S          -3.82066320601723    1.05546100509667   -2.78090947405093
C          -5.19135685620252    2.06651810646868   -2.42221926648413
C          -6.36641085959342    1.52612204309484   -2.92408385551128
C          -6.13377574120610    0.29025576182532   -3.59815209356130
C          -7.19799259322167   -0.50111077844320   -4.22252515592872
O          -6.98909047787704   -1.55131517786584   -4.79941600906354
C          -8.55312604233119    0.08149799188814   -4.09066403783776
C          -9.62689356157298   -0.60847645781311   -4.64758378269285
C         -10.91344804179031   -0.11221532743066   -4.55096693087160
C         -11.14338689694261    1.08706532529876   -3.89269364367290
C         -10.08609802398817    1.78252086734951   -3.33705210656750
C          -8.78429510984062    1.29422029038369   -3.42686830576884
C          -7.70018989753855    2.09456175745665   -2.80962909800849
O          -7.94100519397828    3.15530857519596   -2.25101163421371
C          -4.91662855183873    3.25349467848649   -1.69353128075437
S          -6.06470602496128    4.48605408963374   -1.21972774845606
C          -4.68021920247036    5.30268597888549   -0.50096941834850
N          -3.56174954770613    4.63783136679565   -0.65622443681644
N          -3.69546770159778    3.52222934441830   -1.30908941028980
C          -4.75595180742812    6.54921500876104    0.17050845128051
C          -5.90532767200016    7.25270745762499    0.29782601632046
C          -6.04332276882028    8.50822188578941    0.94005710100237
N          -7.26773610208088    9.14831725897685    0.96722030484027
C          -7.12591206637076   10.32820527647898    1.62123680870934
C          -7.79983836384684   11.47374953035086    2.03473804514357
C          -6.85204198988391   12.26515032536636    2.69055315881244
N          -5.63121410152162   11.61933657570605    2.67894133849462
C          -5.77145177109185   10.43513232711117    2.02810161955309
C          -5.09416660922277    9.29740189368727    1.60030013083737
C          -6.99310906335477   13.54235035527739    3.30040904719210
C          -8.13273544723318   14.26693536457456    3.30997472898094
C          -8.30528974212716   15.56227554539076    3.90399481271108
C          -7.32666282576365   16.27362475174420    4.62017387405603
N          -7.54814958857155   17.44946906730427    5.15786980210614
C          -8.76229363206363   17.97253286040561    5.01148992104611
N          -9.75267361662686   17.42347120518200    4.30567371648875
C          -9.52670403923727   16.24503279594612    3.77421469082045
C          -9.03613670092560   19.26160001585069    5.60958880077627
S         -10.10460327471531   20.33904020103101    4.77416576318741
C          -9.87336108099202   21.55071939334919    5.95515760253534
C          -9.02581185518428   21.15503789112321    6.95418106120699
C          -8.54877929524655   19.82410071887627    6.76940909784842
C          -7.76431477634573   19.14257799541539    7.80737939920110
O          -7.59379460569297   17.94161060726843    7.85448827664031
C          -7.23832219589045   20.04679839464784    8.86426177799388
C          -6.31950280528484   19.52308874059983    9.76992840354869
C          -5.80162731949591   20.30451556272670   10.78622177600466
C          -6.20553230488783   21.62492546830799   10.91872435509266
C          -7.12476884395750   22.15505555835922   10.03302099523522
C          -7.64588298580807   21.38101713658439    8.99901107162927
C          -8.62964420827805   22.00349854811352    8.08288247845512
O          -9.05538150457146   23.13128810872832    8.24442111184911
H          -4.39955044283968   -0.95525127416705   -4.03683039091089
H          -9.42235883930788   -1.53991756937585   -5.15448915524902
H         -11.73672626047262   -0.65784745047943   -4.98704258551072
H         -12.14657104268409    1.47853952872484   -3.81361740346580
H         -10.24365603591654    2.71811450892038   -2.82093678133180
H          -3.82448247155631    6.91664551836564    0.57265931275212
H          -6.81044302332417    6.83840056726717   -0.13162849418325
H          -8.10891149407824    8.78326596693064    0.55479618789460
H          -8.83293972823252   11.71635402572006    1.89281364950432
H          -4.78911032143076   11.98340318123801    3.09004013049636
H          -4.06133532276014    9.05060866918618    1.73641897437144
H          -6.10194675135208   13.93634862920616    3.77138641979467
H          -9.01116473444389   13.86501539907556    2.82358061466285
H          -6.32659830532569   15.88595928621041    4.76036361421990
H         -10.34646441049023   15.81527942696377    3.21056826799294
H         -10.36116543531794   22.50232325657158    5.87240133936980
H          -6.02469823543911   18.49062806001202    9.65360407969030
H          -5.08609651910553   19.88496946631956   11.47767427746356
H          -5.80605690727481   22.23736898341305   11.71321074742187
H          -7.46064331790636   23.17787824962783   10.12003225711944
