93
 SCF done       -175.691021072783          0.000539683614
C           0.40601738991508    5.29127278812394   -5.04444356608072
S          -0.54099250727494    6.29460364022578   -4.04576793324915
C          -1.16339365066341    4.92323265323068   -3.15905895663312
C          -0.64145446694822    3.73607873829801   -3.65734170381851
C           0.26422063957617    3.96805196133769   -4.73666896401051
C           0.97591653644268    2.90548246137716   -5.45843883412753
O           1.76239035529737    3.13784498033607   -6.35610867098531
C           0.65593383059800    1.53653420944996   -5.00502528496164
C           1.29371606496210    0.46481113688438   -5.62480716686707
C           1.02095762778351   -0.83531369538355   -5.24285463582164
C           0.10045532099440   -1.07902733456443   -4.23399210960460
C          -0.53805652600641   -0.02283584591680   -3.61139358500941
C          -0.27099103692387    1.29339058469240   -3.98296210961465
C          -0.98995342546132    2.37023093608682   -3.25726477219328
O          -1.81622454496527    2.10077411453132   -2.40304434552943
C          -2.05920210719935    5.20448085488312   -2.08162191042446
S          -2.87541917130390    6.74734164036584   -2.04639864793025
C          -3.63276957552898    6.38968422439771   -0.52875600447359
C          -3.24953999168043    5.11736885727194   -0.08860879898617
C          -2.36932279778681    4.46211083268295   -0.96524928001191
C          -3.66486475703793    4.52043555009121    1.11301665905521
N          -3.97780181872113    4.00990845518248    2.09255399243449
C          -4.48270337244097    7.35941823190966    0.05386511152910
C          -5.13076301978553    7.22382482672683    1.24247603247602
C          -5.94576062956956    8.24936526571889    1.77626553449514
N          -6.58593716762803    8.15940202611282    2.99013996540085
C          -6.50766659964353    7.06184302495883    3.92494048375963
C          -5.20199554457440    7.07703526747255    4.71535146411237
C          -7.32111862399191    9.32316124739288    3.28782942040452
O          -7.96408638421030    9.47716570793156    4.30456141077432
C          -7.10677914376242   10.17557353725689    2.13776709762578
C          -6.26427516800546    9.49530218320190    1.23095444138199
C          -6.06152637679608   10.36293670468888    0.09441130934855
O          -5.41110954630442   10.22837578775761   -0.92484118380228
N          -6.80292250059605   11.52257288988678    0.39058064378796
C          -6.85634819539824   12.59724191523762   -0.57111027097631
C          -8.14190926471641   12.56110707396495   -1.39426262369555
C          -7.43605601444836   11.42340796109253    1.61101764743149
C          -8.24705374220237   12.35381938675560    2.30378434672987
C          -8.68810799787858   13.58322332898290    1.93013415082090
C          -9.47236861145686   14.39498412310082    2.78758526784331
O          -9.80224805742124   14.00680235488471    4.03682280085767
C         -10.52760750673995   14.98877075074558    4.61746661279308
C         -10.68127566513529   16.04849652127931    3.72299624204715
C          -9.99878594030049   15.66424547266059    2.53695272800589
C          -9.86281580930497   16.38507180051205    1.34481141899640
N          -9.73397983904929   16.95064024527429    0.35550869241545
C         -11.36690511464515   17.25089721102210    3.94331319267936
N         -11.92298258625748   18.24009828566405    4.10340990168991
C         -11.00670775298835   14.87377331304411    5.94855021055947
C         -10.79701125420199   13.76366374128097    6.69446178467408
C         -11.19532217014134   13.50313438125834    8.03715363526483
S         -10.82073280856814   11.88085538639538    8.57935885776446
C         -11.47116873266259   12.17615571919795   10.12042576309345
C         -11.95013363573779   13.45151540980682   10.24621373133305
C         -11.80458664248546   14.23149379980646    9.05947572229927
C         -12.26458334878805   15.62346840166773    9.03920409439401
O         -12.23662489313734   16.34494336147058    8.05685419007261
C         -12.79329347350342   16.14386378345585   10.32534109984062
C         -13.17651289754756   17.48327845240227   10.36664758694892
C         -13.68360802883242   18.03972037190265   11.52599081663045
C         -13.82193998118225   17.26199930455017   12.66664212495833
C         -13.44916647115031   15.93128203844233   12.64008581446255
C         -12.93200463276105   15.36224967184026   11.47894659809329
C         -12.53923850552364   13.93997795112759   11.49993836110135
O         -12.67750064133006   13.22878141114374   12.47696865309762
H           1.02624527975254    5.70514040712368   -5.81527156664529
H           2.00341750711155    0.68175609043191   -6.40938394265275
H           1.52245558272554   -1.65781414765825   -5.73015657457677
H          -0.11866327061181   -2.09258756160657   -3.93343075989905
H          -1.25730272881887   -0.19288092250356   -2.82386884921320
H          -1.98360960835264    3.47738337916127   -0.77928496381816
H          -4.60134769590957    8.27811787240539   -0.50737133151855
H          -5.02741715090318    6.31473427328900    1.81390758832612
H          -6.62315150072502    6.11506196309514    3.39076467253743
H          -7.35198788738648    7.18854009083277    4.60833040697826
H          -4.34414490719991    6.97440648045688    4.05478061805260
H          -5.19433395282229    6.25220304685765    5.42188110664779
H          -5.10982493977428    8.01035799428175    5.26579783953680
H          -6.00006071663710   12.44407739229538   -1.23515505115563
H          -6.73156029245050   13.55485770325408   -0.06048412032571
H          -8.17763496207903   11.64546005413892   -1.97947199717921
H          -8.16911700242196   13.40918691950587   -2.07260784030489
H          -9.02155675400702   12.59485865667511   -0.75536516672280
H          -8.54129675898050   11.99420753128712    3.28274889235200
H          -8.47793226709263   14.02361360317321    0.96914775691315
H         -11.54338355343086   15.72518588426716    6.33838322592110
H         -10.26488014064462   12.93879373955653    6.23318298860293
H         -11.47876942123903   11.41773443904272   10.87890377490349
H         -13.06546753110839   18.07267293558296    9.46844844001973
H         -13.97247194896266   19.07991500109541   11.54096557468493
H         -14.21961113300859   17.69358742858767   13.57283825056410
H         -13.54750934016790   15.30311837050845   13.51307677329275
