86
 SCF done       -155.495329701153          0.000422965938
C           0.35730354222333    1.21340263078920    4.18626740630129
S          -0.93317305853560    0.30924212527828    4.82518878470112
C          -0.55652235675999    0.85992558959429    6.42682532771332
C          -1.38175970120582    0.40413000205142    7.54481524487213
O          -2.31699865797202   -0.35032920588179    7.44008027632798
O          -0.97115063868942    0.93157419562728    8.70972665455158
C          -1.71939396578686    0.54517573247508    9.85371000356533
C           0.52086886113457    1.69820104175359    6.43647075613203
C           1.06412212912000    1.91580777440746    5.14368812280570
C           2.19312072819768    2.75658565765555    4.86008052084730
C           2.75468481348875    3.01836082250153    3.63550866469169
C           3.86877285395926    3.89057332941474    3.80558033706145
C           3.94703470302612    4.17762858741391    5.25020963881298
C           2.94206412377803    3.49913200675521    5.86366588950582
C           4.81725686071378    5.06504568790987    5.89385328109265
N           5.47377020704239    5.81104504217418    6.47019170544857
C           4.71373975973443    4.37573710531705    2.83382628990440
C           5.89359981589249    5.14508941883271    3.01787573905905
C           6.41967253174003    5.48007612029497    1.78426789583892
C           5.55807587410891    4.90079530083920    0.76560661049239
C           4.55474757840968    4.21735994657602    1.37860526736070
C           3.54372619566197    3.51832204243821    0.71186665707264
N           2.72998431371322    2.95154499548814    0.13104018551069
C           7.61509345072193    6.23031769470112    1.62271468897204
N           8.02428958259539    6.93540285968017    0.51398400574485
C           7.29410541555304    7.18677809266050   -0.70633206130125
C           6.02479401217759    7.99715792803189   -0.46492607931874
C           9.25487472778024    7.58265034167176    0.73277949302895
O           9.79937505006463    8.28139125713234   -0.10193420441521
C           9.63204638535242    7.20544945918829    2.07272073964679
C           8.60518792170506    6.38562112801450    2.59493279469935
C           9.00757561642214    5.95187483593731    3.91744000879322
O           8.49370181094564    5.22225193662044    4.73554980252107
N          10.25316811102318    6.58331598138020    4.12041022364068
C          10.99510341540468    6.37641414932028    5.33995381057951
C          12.10898000060162    5.34776029423437    5.16004411301177
C          10.64137276101419    7.32604560515677    3.03356612574814
C          11.84381465610528    8.06854085057092    2.97488377232490
C          12.19357300887107    8.79762487176582    1.88107188670982
C          13.37263346307754    9.57375500440409    1.76890892033371
S          13.65023150677844   10.48179327080451    0.30249253498530
C          15.14636903870994   11.11369032926160    0.90284983796978
C          15.40180437951737   10.62266236378356    2.18817045677472
C          14.40534289851454    9.76241812919602    2.66699990186284
C          16.55130601036984   10.97045366801933    2.91787305333577
N          17.48940965844253   11.25259708287635    3.51479409822853
C          15.97173197536710   12.00746800356328    0.17582943298973
C          15.67865125135822   12.46934679581772   -1.06294318732734
C          16.48037251742847   13.37397793235948   -1.81105162852608
S          15.94774618408042   13.88161866058929   -3.38775023160746
C          17.34405702805396   14.87316614171767   -3.57817024818866
C          17.55595318433740   15.66208583682523   -4.78707942841020
O          18.51062594068566   16.37393854258853   -4.98230301675828
O          16.54733343360709   15.49904455913799   -5.65968295448924
C          16.65175042459294   16.22573482661418   -6.87373016855931
C          18.17215803171644   14.80926853816830   -2.47958587271125
C          17.68802152009196   13.96539066527016   -1.48240573611808
H           0.54581550222748    1.19403932324667    3.13108816836868
H          -1.28383213180358    1.07879759809891   10.69424402344745
H          -1.65009398536534   -0.53387252824687   10.00545524166938
H          -2.76999184982066    0.81483124490039    9.72841585893758
H           0.89845946874301    2.13658350476532    7.34116947310935
H           2.43882047289729    2.62117692900814    2.69198519280331
H           2.72563374387575    3.51311914032073    6.91525027827514
H           6.30958179947281    5.40896680378038    3.96951111034864
H           5.70469415305219    4.95512151924545   -0.29592120684337
H           7.07062439041153    6.24384634287764   -1.21201545692104
H           7.98108478561416    7.75709219051006   -1.33942868356081
H           5.32998871614156    7.46060046468745    0.17748263722557
H           5.53485174880830    8.19975521702693   -1.41331350998779
H           6.27212134282082    8.94456846480795    0.00816163469214
H          10.27181621564618    6.00776750535500    6.07274283520946
H          11.39660029596724    7.33102639398368    5.69133525873004
H          11.68499227010506    4.39309136068343    4.85903221503120
H          12.63891676163478    5.21141115092396    6.09857089311861
H          12.81830077698821    5.66616623178307    4.39888050670322
H          12.48681039716586    8.05142200963064    3.84228395178905
H          11.53522170125143    8.80276156094863    1.02200288576125
H          14.45006767433879    9.30085214223634    3.63695784674744
H          16.87753828308264   12.31826090292597    0.67861549755035
H          14.76376940070351   12.14005137704687   -1.53925149271400
H          15.72718599791906   16.04492322697673   -7.41542742586393
H          17.50983907616332   15.87608204571537   -7.45151715101587
H          16.77748513536396   17.29069501940463   -6.66819608707160
H          19.09085658245466   15.36469681346105   -2.42466669926137
H          18.19795038815917   13.79035245709539   -0.55291394016735
