112
 SCF done       -215.386056074701          0.000636586236
N          -1.23919833746325   -3.91042262974727   -7.82530618494625
C          -0.74461667598567   -5.10025892434096   -7.74376032260451
C          -1.34766068114117   -6.30284228356902   -8.33228869942753
C           0.50947409025677   -5.11090852166047   -6.97887216624526
C           0.72804370117016   -3.83436456136043   -6.56320678564521
C          -0.40943293557790   -3.00774533015531   -7.13737407124566
O          -0.56812372156532   -1.82547266194375   -7.04503076083294
C           1.92873349692946   -3.62815286090402   -5.81485927126212
C           2.43064272981837   -2.31291836079228   -5.36366733456259
N           2.52530275483665   -4.77645494072783   -5.68703015880941
C           1.47099102383445   -6.11928222981028   -6.46036048218353
O           1.22971450261119   -6.93530719350234   -5.60168947080853
C           3.66287368831073   -5.29828681324483   -5.23756034942794
C           4.16728839134872   -6.46739094593798   -5.93105856167274
N           3.62945444578574   -7.00785621216429   -7.00749294879701
O           4.07121397881099   -7.92639745865117   -7.65642017760871
O           2.45369829229150   -6.43837354940923   -7.47798392607776
C           5.39090309097056   -6.84776983444386   -5.29423201271412
C           5.62286001131326   -5.97476260334687   -4.27812065192944
C           4.56370318814236   -4.99993930111599   -4.20012194910777
C           4.38028310262179   -4.04046665560603   -3.17024317922452
C           3.16572594922912   -3.68349396562208   -2.60089914702175
C           3.41391791717964   -2.83742156057871   -1.51113529731976
C           4.78420693079316   -2.63850052573848   -1.37885972921598
N           5.29300565686858   -1.82330286964458   -0.35573490124184
O           4.48921452899306   -1.16653378761003    0.28198724547745
O           6.49529916854921   -1.81485370287307   -0.12630075805829
C           5.45192456588939   -3.35640666041591   -2.43770150254154
C           6.73936787889919   -3.37526611689423   -2.92982513372045
C           7.91283218122311   -2.89495979858784   -2.34169672967211
C           9.13535439865059   -3.01994646407776   -2.96346533388364
N          10.33982796949482   -2.67978456025453   -2.38654545837280
C          10.52408604863969   -2.16093054242760   -1.04769273157504
C          10.47819637525585   -3.26802703102343   -0.00013337773943
C          11.42343426918606   -2.96088026216031   -3.20849047203689
O          12.58279529142659   -2.76462215338005   -2.90658243692708
C          10.82459265579243   -3.49991209003638   -4.43284135033803
C           9.45504424691935   -3.51831709103353   -4.27004446293974
C           8.85261049022964   -4.00884298936163   -5.51226179870421
O           7.69265832836179   -4.19673745645603   -5.81689481790204
N           9.93509623649012   -4.25512017285572   -6.34950084449328
C           9.75386737394628   -4.73291587034874   -7.70359310083800
C           9.96614030097645   -3.62657560808980   -8.73152451975404
C          11.14329596522715   -3.98404520372346   -5.74531453405786
C          12.37371133399891   -4.21609720224606   -6.32120633655029
C          13.55267110498970   -4.05311805571350   -5.58907654469223
C          14.85596723789210   -4.32345352362893   -5.95177947718446
C          15.53912672737836   -4.48748190641864   -7.20674704785896
N          15.04278441401560   -4.57931071568971   -8.51642182198157
O          15.85620196378298   -4.55070266435512   -9.42284209494862
O          13.83904974778487   -4.70148530242394   -8.70222229866506
C          16.91183066804056   -4.48304154338983   -6.96040760917210
C          17.14368976552329   -4.36419494358215   -5.58702538852659
C          15.91939848924529   -4.28298977517062   -4.93240283840373
C          15.65244990827495   -4.31607187286181   -3.53799403581555
C          14.59651100577551   -5.00277973234379   -2.94552902026493
C          14.67928730095417   -4.85254216382342   -1.56319074891880
C          15.78425611372943   -4.05684811953408   -1.24364550255968
N          16.05080531854924   -3.75689107580616    0.09859729861441
O          15.26121151479310   -4.17435716670276    0.92788297502542
O          17.04713788686507   -3.10974300870356    0.40446906845247
C          16.43963283634350   -3.68513869223655   -2.46757806440107
C          17.51922538220586   -2.87167691329621   -2.78584935699909
C          18.35612105503460   -2.21381827404642   -1.90408940545201
N          19.49062360173396   -1.58888538260668   -2.23989926890453
C          20.25544858528654   -0.86351086805887   -1.37629155501668
C          19.89604614750055   -0.61992826929218    0.03582503790958
C          21.36810519128682   -0.41776988522696   -2.07427454397335
C          21.33932851889225   -0.86382602895008   -3.40092741358612
C          20.17978785223558   -1.64388387611405   -3.60660257465888
O          19.72234997924604   -2.28180117144878   -4.51575593202283
C          22.54147315143133   -0.36084874247111   -4.02678799791137
C          22.93227847796762   -0.59448282957553   -5.42902824024995
N          23.25750905900047    0.33527734632576   -3.19279774466003
C          22.64484272572592    0.38117489386750   -1.94144548799932
O          23.05332711788559    0.94010347544883   -0.95963717761564
H          -2.28891288931019   -6.06079232499790   -8.81595157748336
H          -1.50034952640339   -7.04674811310883   -7.54966141441662
H          -0.65446536252586   -6.73860470335250   -9.05263501832240
H           1.89355429540261   -1.51577050190362   -5.87065078084635
H           3.50151252006369   -2.23203766591240   -5.54886416474765
H           2.28382114274610   -2.20934358705598   -4.28457804029148
H           5.99059332790103   -7.68505710429902   -5.59324268017368
H           6.43371060596671   -6.03251522991941   -3.57747017408429
H           2.20688311554681   -4.08526738552660   -2.87105938075442
H           2.67560928795437   -2.41320017612086   -0.85591163793073
H           6.84646880597103   -3.84850150795916   -3.89768854471490
H           7.86574610080645   -2.45887647282436   -1.35562484470180
H           9.75886410905496   -1.40863872428809   -0.84595942671971
H          11.50732336376677   -1.68369806603767   -1.03758477162922
H           9.51056824874263   -3.76340858055779   -0.00027727121042
H          10.64791616235903   -2.84174127310826    0.98373467297399
H          11.25415237248268   -4.00422295781511   -0.19551438815082
H           8.72604764985594   -5.10128938694910   -7.75867813974104
H          10.44032478667316   -5.56258235508478   -7.88847409561543
H           9.29613442675974   -2.79314452116700   -8.53351649569738
H           9.75586595272437   -4.01292165683672   -9.72427555351505
H          10.99165453446280   -3.26764855880647   -8.71376335612408
H          12.42451771263499   -4.58427568814698   -7.33385078190856
H          13.43657175488528   -3.69600607195014   -4.57396915947435
H          17.66245048939729   -4.57395157359027   -7.72342947539905
H          18.11473025230592   -4.41550686175461   -5.13309897769610
H          13.88401001070918   -5.62182164105547   -3.45633650776851
H          14.01695732105440   -5.28012146532015   -0.83376336281204
H          17.71925799597921   -2.76430966388558   -3.84166433529377
H          18.11105395634532   -2.19988323857373   -0.84871348806665
H          18.96137510987293   -0.06230143009793    0.10776188516647
H          20.68854639176136   -0.04852866454432    0.51103532188079
H          19.75728584911985   -1.55955858383092    0.57264410541568
H          23.87622954150763   -0.10186580925184   -5.64001128765061
H          22.15648250234380   -0.21774997067170   -6.09488479559978
H          23.02168502528239   -1.66529414056086   -5.61022025336951
