109
 SCF done       -210.162670287130          0.000697959897
N          -0.41346606479979   -0.13801876194917    1.41620085368979
C          -0.15728696903064    0.90673413587590    0.69095498525343
C          -0.98741070132216    2.12166835672577    0.67364595791973
C           1.05776796959086    0.72021817387130   -0.08482190762863
C           1.54870268258484   -0.53532160252158    0.24113762041044
C           0.57254461134053   -1.11778796411271    1.22734193991750
O           0.61339653240313   -2.19768043809874    1.75121800990534
C           2.77088829191439   -0.75747483945523   -0.40875668529885
C           3.64127668698153   -1.94100101822515   -0.33170442856365
N           3.05973270346932    0.34513081051378   -1.12274135773121
C           1.95916526063809    1.34567156388045   -1.01474553571629
O           1.91882139379731    2.31532559311067   -1.71416128734195
C           4.18803365258087    0.64174296281350   -1.85257637640888
C           4.91825438640025    1.81462584405977   -1.70520492333947
N           4.74191059229394    2.78411403033248   -0.70479883712788
O           5.44731793321308    3.77245975708619   -0.74240393082843
O           3.92308664710177    2.55203787249008    0.17627907604711
C           5.99559573697908    1.80463712263622   -2.64918316427435
C           5.95202803929839    0.63097128407277   -3.33836690472134
C           4.82599602868850   -0.14143998959821   -2.89299087117636
C           4.32945417660407   -1.30829912180654   -3.47104654065972
C           2.96722344885060   -1.69676334826378   -3.51999267160016
C           2.82997846474246   -2.74790532953321   -4.39667564179527
C           4.10935247086130   -3.10875974301537   -4.88068003045435
N           4.32927154007193   -4.23190163965833   -5.69961420531545
O           5.46627727612703   -4.65921828772075   -5.81355414070736
O           3.35344724903848   -4.72445802826549   -6.23706608995127
C           5.07842953092060   -2.25815032427823   -4.31453601050050
C           6.46076149015663   -2.38418616512896   -4.46564369304040
C           7.40969616163993   -1.95486353851307   -3.56197357731307
C           8.77990631339779   -2.08021811635452   -3.80204087693555
N           9.76512043014128   -1.84716390756216   -2.86610510994728
C           9.57120932596360   -1.37502826625385   -1.51413718762434
C           9.33719815138961    0.13242836619179   -1.46877647183887
C          11.04083947022712   -2.09041910665951   -3.37230372768429
O          12.06637373779651   -1.98182520833308   -2.72287235683055
C          10.81723458688496   -2.48941854479457   -4.75044054647545
C           9.43857274780527   -2.46960114788897   -4.98754785813004
C           9.21476096971689   -2.82707848407725   -6.37915273013066
O           8.21241880112551   -2.89371914663167   -7.04989104463376
N          10.50859268853814   -3.08766710907725   -6.87969292188610
C          10.71330554630959   -3.44621041281579   -8.26348942224533
C          11.13317459557858   -2.24242060157458   -9.10262713793761
C          11.47614346333931   -2.87754518538650   -5.93959909962655
C          12.85818526192900   -3.01956903567222   -6.15343381598955
C          13.74210321855876   -2.72412451746878   -5.15546576769833
C          15.14108477879322   -2.79224317617828   -5.23600387218588
S          15.98529368604380   -3.49079292462995   -6.59048249038174
C          17.51677293553956   -3.25105225722201   -5.81362274336179
C          17.37629588016258   -2.63385429273019   -4.57966788826438
C          16.03870992897010   -2.36010006291522   -4.26174424448797
C          15.62891148129390   -1.64964213757179   -3.01453011495326
N          14.82280974156869   -0.40827496607619   -3.31062950932471
O          14.47006480404576    0.21713706538563   -2.34856275808498
O          14.61755505946915   -0.11730064068897   -4.45972932291294
C          16.84212409641604   -1.19560168544975   -2.19153366244393
C          17.91549102434703   -2.27548879284706   -2.18538670654733
C          18.48724408597662   -2.41715696894449   -3.60079344072673
N          19.40019301210162   -3.59344358126733   -3.58989028720279
O          18.90895774142086   -4.67822899472661   -3.79645976032125
O          20.55702223211335   -3.38475550232286   -3.33747559249966
N          18.69402489218115   -3.58951086736115   -6.42718318998312
C          18.96117333189035   -4.73369431969436   -7.14073271160622
C          18.02406434110262   -5.86494642136917   -7.25750823546707
C          20.24940786407412   -4.62352183118880   -7.62434211363016
C          20.80729529302256   -3.39494364560582   -7.23458196222099
C          19.84460309365025   -2.67047134232986   -6.47725730682796
O          19.80033764863741   -1.57412627627715   -5.96932061166905
C          22.16165006419438   -3.38529173553505   -7.72931029142246
C          23.13545568408375   -2.29686690228098   -7.52942671707626
N          22.43083201163032   -4.48004907155304   -8.37991395078676
C          21.32136903694686   -5.33701425840363   -8.38811043976431
O          21.26255288449461   -6.41842741204418   -8.91043457634099
H          -1.80969424096382    2.02584441674512    1.37545258903048
H          -1.37193486837341    2.28927930523886   -0.33216416303984
H          -0.37083785129190    2.98323577942793    0.92858561680661
H           3.38849742935087   -2.52115456010565    0.55217415311509
H           4.69027663393608   -1.64612130694594   -0.31038760578588
H           3.49159132675198   -2.57244551191676   -1.21254290738209
H           6.69775303168752    2.60840313473790   -2.75844826125199
H           6.58766177330404    0.35277740381928   -4.15582009357415
H           2.15632402759699   -1.17581955942285   -3.04810202937007
H           1.91892791923658   -3.24248624922331   -4.67664506203390
H           6.79264079241414   -2.94493257716978   -5.33287700549382
H           7.09231436333989   -1.55989725909022   -2.60762033582242
H          10.48924223564970   -1.61817432339714   -0.97261843340372
H           8.73906726145967   -1.91757056891876   -1.05761975984712
H          10.19458876913883    0.65295087725290   -1.88758732561875
H           9.21122577281285    0.45224776881604   -0.43844617189450
H           8.44985813428080    0.41178149401140   -2.03252765473507
H           9.75470307630032   -3.82899087625410   -8.62365315870830
H          11.45803802080808   -4.24400434876864   -8.32298378481105
H          10.35872916899551   -1.48025039628443   -9.07281854299825
H          11.27705945447160   -2.54859368721176  -10.13465002168048
H          12.05975922052796   -1.80964476469627   -8.73201413558371
H          13.21625223208245   -3.33733584460287   -7.12197700648505
H          13.33871994402316   -2.40143743621415   -4.20576774952170
H          14.96498662425620   -2.27688131189873   -2.40712776731023
H          16.52472156423433   -0.96419202905507   -1.17529705221986
H          17.25937718136471   -0.28587002084763   -2.63062345915821
H          17.48440060173256   -3.22873380324149   -1.86905367366995
H          18.71522173057340   -2.00684875739751   -1.49470295185479
H          19.10021493417907   -1.54669264138677   -3.86109897222479
H          17.60186515065000   -6.10713696843345   -6.28184559403806
H          18.56030244369990   -6.72406570312094   -7.65215187544475
H          17.20272594347718   -5.62756287122822   -7.93522843764368
H          24.05918027787728   -2.51973554031595   -8.05417665942178
H          23.33354876848405   -2.18339708700782   -6.46350159112634
H          22.71628798701230   -1.35564811964251   -7.88282217206168
