86
 SCF done       -176.713335302093          0.000992615882
C           1.28131663878370   -1.81489980618996   -6.76652575383480
S           0.06921985066430   -2.88635334233751   -6.17351930056091
C          -1.12239994297149   -2.31990883070260   -7.32917743589582
C          -0.55467361461574   -1.35021788124727   -8.10989324566338
C           0.79635425551830   -1.06430146184634   -7.79113627816432
C           1.24264584649482   -0.00536499499547   -8.71336872097077
O           2.29475131034985    0.54286673897622   -8.81629326768748
O           0.15796157962358    0.30128144236671   -9.50822905856310
C          -0.95755787244367   -0.45649085479123   -9.19981409112461
O          -2.00856628763358   -0.31181694144023   -9.74163281511388
C          -2.43954564638872   -2.87939325942241   -7.41193400742854
C          -3.07025585643931   -3.36006955134326   -8.53844195435769
N          -2.55267472233182   -3.45814805489659   -9.85248216465865
O          -1.37081672572066   -3.22442099284149  -10.02558204523942
O          -3.32062505083649   -3.81563195668791  -10.72166351796555
C          -4.35753820771109   -3.90362846395189   -8.16977774253813
C          -4.48876918625484   -3.82417445705995   -6.82603710040260
C          -3.32627360695408   -3.16365591509993   -6.28346877397250
C          -3.13712519578009   -2.73806962365665   -4.98523743556758
C          -2.40504160230539   -1.58545376179505   -4.57088902852866
C          -2.65913766267554   -1.36368988308049   -3.25236662649477
C          -3.50837918090079   -2.40146147357842   -2.74523091068301
N          -3.86050424908513   -2.40471655352504   -1.38554503180777
O          -3.25287073301306   -1.64211506272622   -0.65463533340324
O          -4.75199831486021   -3.14414302041523   -0.99145054264044
C          -3.80025731045026   -3.29845566945221   -3.78348102533878
C          -4.32915962566676   -4.59861975403314   -3.82927598646260
C          -5.02813927138292   -5.26949988327781   -2.85569596747571
C          -5.45210355398427   -6.59538907678419   -3.03143469459796
N          -6.15575934651694   -7.29907887637454   -2.08364426308759
C          -6.51695443328924   -6.83277748388895   -0.76331397732958
C          -5.33473976029570   -6.87986811203134    0.19952327686683
C          -6.46255654449797   -8.59713563118999   -2.50503349254384
O          -7.07230582425306   -9.40515360134335   -1.83457124776156
C          -5.90432005958411   -8.68260088427275   -3.84351306819265
C          -5.29035268618308   -7.45328266178572   -4.13771434340182
C          -4.74643907306177   -7.53744122586013   -5.47935273073264
O          -4.12522307285166   -6.74488292491941   -6.15793090371738
N          -5.09544624503850   -8.82689146181650   -5.91771798555338
C          -4.69226950248705   -9.30442332853878   -7.21956277832842
C          -3.45336762687909  -10.19266882624843   -7.14244928447376
C          -5.77129219239211   -9.53247282608239   -4.95436893389423
C          -6.22311372575477  -10.85935534375063   -5.11418887789204
C          -6.85434839642817  -11.53333603452142   -4.11100071053477
C          -7.31840379196405  -12.86643091988413   -4.19347117192812
S          -8.06066792164885  -13.59766072811846   -2.79676063379873
C          -8.31191854327606  -15.09305221638766   -3.62880726617883
C          -7.83526952716925  -15.00726277628766   -4.94614093698459
C          -7.28022604106902  -13.76010711763002   -5.25160524539315
C          -7.88141084424504  -16.04014922251422   -5.89948123685247
N          -7.89385297575160  -16.84789817809316   -6.71429114662341
C          -8.91988916784773  -16.16778128850440   -2.93115896202160
C          -9.19230376304839  -17.39161521914926   -3.44871406609958
C          -9.78934782523146  -18.44242425157022   -2.70282354614790
S         -10.11020000327780  -19.97473074308255   -3.49361958241361
C         -10.76808157080804  -20.68224722624853   -2.07275794554741
C         -10.74378692947539  -19.79192298293198   -1.04379739523304
C         -10.19687402116648  -18.52804183753034   -1.38518473854881
C         -10.24074218945628  -17.70202384925867   -0.17736589059496
O          -9.89456523498767  -16.57349322712768    0.01481291233686
O         -10.79371535761321  -18.47806432599803    0.81872259211389
C         -11.12331154674972  -19.74536870916943    0.37630665153877
O         -11.61334970292450  -20.56768525987282    1.08322914691296
H           2.25905842794985   -1.81297682915198   -6.32819320786056
H          -5.05372817267872   -4.30087309864215   -8.88263738264472
H          -5.35635142469049   -4.09066305798651   -6.25618784404134
H          -1.86291442010936   -0.93209373282109   -5.22571843339920
H          -2.30891316044050   -0.54686826550146   -2.64933492163426
H          -4.13080102519708   -5.13094158066613   -4.74995081571312
H          -5.27676270382734   -4.77270944084822   -1.93098611940995
H          -7.30636247950616   -7.50287071188655   -0.41252552865881
H          -6.91460362904997   -5.81768962597623   -0.83205287557572
H          -4.94615293612643   -7.89314129041782    0.26953215151340
H          -5.65933323301972   -6.56237405597605    1.18584029537348
H          -4.53788310227819   -6.21802911037610   -0.12973585522047
H          -4.46684468301957   -8.41401000820986   -7.81277635269482
H          -5.52666452553564   -9.83503034793757   -7.68585065471322
H          -2.61909781564039   -9.63132802257668   -6.72954497551190
H          -3.18323993145765  -10.53070744453528   -8.13870240874959
H          -3.63112856906842  -11.06172971976567   -6.51272493670326
H          -6.04774729714028  -11.34087132244832   -6.06465665398545
H          -7.01836922142258  -11.03144048727500   -3.16569436612884
H          -6.86869514858532  -13.52997810878183   -6.21801440079125
H          -9.17337905628507  -15.96486120527995   -1.89874616083133
H          -8.95784489324786  -17.62116598902705   -4.47830824635734
H         -11.12577161388848  -21.69239489496697   -2.08070266314997
