93
 SCF done       -179.222708018609          0.000826685109
C           0.47816093925072    2.07563046793444   -2.90567907079181
S           0.68142364120764    3.02734286740874   -4.31721011122351
C           2.15771928319250    2.20079461831947   -4.71434148269640
C           2.92284653454857    2.55794183413589   -5.91627854514220
O           3.95099183583222    2.01639418991267   -6.23298776057751
O           2.42184049846208    3.54596135012015   -6.67695956499655
C           2.46172941026336    1.22504500512327   -3.76615177598923
C           1.47582605895720    1.17786977027227   -2.73827349409160
C           3.62299336306382    0.39088029128802   -3.83620039082419
C           3.97036124989850   -0.53405382322951   -2.90926130483013
C           5.13772039476648   -1.33776809192716   -2.98531743347615
C           5.54000723479887   -2.25738645348894   -2.03995274707130
C           6.75294262816842   -2.86524163075879   -2.45955997478395
C           7.09740034051238   -2.23952362492216   -3.75397414176206
C           6.13439326531285   -1.33139560264240   -4.05316868557610
C           8.25769334795811   -2.45467224958068   -4.50930387712511
N           9.21257348953701   -2.56679301086950   -5.13738494023079
C           7.48674038426895   -3.82728315273333   -1.79836949601682
C           8.64864349079038   -4.49701258527036   -2.26042691186226
C           9.13799979487396   -5.31362535053991   -1.25323310702853
C           8.24726783196963   -5.18750064426435   -0.11248227766561
C           7.24426753390077   -4.32635195943935   -0.43579822531903
C           6.18945786084647   -3.98023551777470    0.41483818031354
N           5.33501498576880   -3.72257046502283    1.13860002279021
C          10.30556889088399   -6.10413190548950   -1.39841491711320
N          11.10726101920584   -6.60345659452141   -0.40654258195090
C          10.96460710398296   -6.45784306568840    1.02314370654791
C          10.20378506098417   -7.63358189467220    1.63165439059586
C          12.22022574144880   -7.29622212498445   -0.92685076302281
O          13.07067138762280   -7.80387893232403   -0.22778654110008
C          12.05462968277069   -7.21694104378096   -2.36321049204021
C          10.88244724444207   -6.48283651628495   -2.62081234851029
C          10.66064373237688   -6.47479817328911   -4.05596512599277
O           9.77499576283112   -6.01968898826931   -4.74339961001409
N          11.75185778181349   -7.20018688815837   -4.57301103200886
C          11.93478230695140   -7.35245242254371   -5.99645663160875
C          12.96094705437985   -6.36358218397845   -6.54278636065427
C          12.59917779710142   -7.64119033541587   -3.58761680521055
C          13.76793100763661   -8.38618305761625   -3.82988994390947
C          14.62620427464875   -8.73718189766369   -2.82615380871306
C          15.80994389344055   -9.49288779989299   -2.98660715669938
C          16.64061392617355   -9.71896612402620   -1.85470536590191
C          17.83215040045048  -10.51739945631565   -1.92937105199275
N          18.57557043150383  -10.70659293944333   -0.82953425276921
C          18.21610574610938  -10.15698364216094    0.30339150809147
C          17.03575704951837   -9.34649105025442    0.37034410807169
N          16.29445067659530   -9.15455325748473   -0.69173062513434
C          16.66606128606657   -8.73484743685642    1.59533145921630
N          16.40944686975483   -8.26039124097080    2.60554623084169
C          19.01674208051715  -10.37059350725970    1.45311579139198
N          19.65013425068504  -10.53146194849333    2.39355660497161
C          18.26773408916068  -11.12858247564906   -3.12769253136190
C          17.46285678305659  -10.88461543251478   -4.26263026643105
C          16.26107564231054  -10.07966682159819   -4.19466363383231
N          15.66783058521486   -9.99005198081357   -5.38532007232699
S          16.51643542952380  -10.81607943894981   -6.46973402083224
N          17.67983401498026  -11.33747227309122   -5.49919257502080
C          19.44097437823791  -11.93521378983905   -3.15560495717205
S          20.39240048409674  -12.18511084566317   -1.72439267002559
C          21.50758225837108  -13.19600795805003   -2.59619767348292
C          22.66247557875160  -13.79199334403759   -1.90794835966289
O          23.45867199096591  -14.51935222551141   -2.44422202767044
O          22.80855781146897  -13.48147301311778   -0.60803131615663
C          21.14868884328419  -13.33383603242420   -3.93617433741948
C          19.97894660867819  -12.61001894339593   -4.23009389809318
C          21.89140287714624  -14.12171163259082   -4.90127119086616
C          21.50593239940007  -14.34142716737741   -6.15421032535662
H          -0.37812659533853    2.24577179298718   -2.28320747796308
H           1.59625009387231    3.91916740924561   -6.34115840067792
H           1.51141769814365    0.49694093277501   -1.90824328455722
H           4.24853669426361    0.54794691612518   -4.70128012694341
H           3.35667785615304   -0.69523841116075   -2.03272781146629
H           5.01654053667034   -2.49675234905564   -1.13485450906910
H           6.10733322338700   -0.70245691265306   -4.92294475581584
H           9.07494963972280   -4.38365142136844   -3.23693818913621
H           8.32320026461794   -5.71914031463203    0.81610058587787
H          10.47924311296209   -5.50435682210913    1.23997583235828
H          11.97771020201008   -6.44097989662182    1.43641108246279
H           9.22757770789738   -7.75762573567439    1.16696432891158
H          10.07026971668701   -7.47473424942898    2.69807437963716
H          10.77112849729057   -8.54929676031999    1.48602955069070
H          10.95866092835696   -7.15498257852568   -6.44810423453764
H          12.22849580289796   -8.38209036806867   -6.21809166166874
H          12.63506520502376   -5.34540771736669   -6.34535302409917
H          13.06007108533054   -6.49349762161938   -7.61671353583638
H          13.93313392352549   -6.51597067327832   -6.07920189487471
H          13.99410039375765   -8.68102734315403   -4.84366865337020
H          14.41982540770683   -8.42634254913161   -1.81019189291618
H          22.12301993546754  -12.89258039956539   -0.26474736617600
H          19.52399209239915  -12.56462960131286   -5.20130319632048
H          22.81040197667046  -14.54967809898988   -4.53026448611817
H          20.59093582952963  -13.94807851453205   -6.56463529135695
H          22.10468113851766  -14.93956714174579   -6.81867738109246
