96
 SCF done       -187.817074896076          0.000380070803
C           8.46741153811728    3.39678344228660   -6.57788503766202
S           7.22691210451027    3.62181685415306   -5.43972276533134
C           7.80318467761566    2.28222838215825   -4.48363164947698
C           8.95465044264061    1.73985681211399   -5.03832318436113
C           9.29399083158295    2.34802034172059   -6.26328282379997
C          10.38888218217639    1.84237669010404   -7.16150892178205
C           9.75249402758133    1.28075439477347   -8.43471386853674
F           9.05524887271329    2.21173761365115   -9.11228727957709
F          10.66849214902624    0.81079066906606   -9.29147203596815
F           8.89380431049204    0.27740321310970   -8.20626692552549
C          11.25701768551872    0.77470116530722   -6.48011840381648
C          10.44458422561534   -0.14817872936363   -5.57354303549962
C           9.83666498520138    0.67843573231225   -4.43696192325358
O          10.92910566572236    1.27486621655668   -3.75465195438190
C          10.64839792828826    1.80586817532123   -2.48288516105161
C           7.11074217776388    1.87119030474972   -3.31639244009935
N           7.71290770868092    1.18792570902149   -2.35448589271394
C           6.83427033313075    1.09610371016465   -1.33844791484416
C           5.58353840815921    1.78268213333027   -1.66609149830542
C           4.61072031805681    1.65976833151164   -0.57410233680129
O           3.48492912276557    2.11237542676359   -0.52353565379243
C           5.34569970136206    0.85266534524058    0.41328253828310
C           6.70163061152962    0.53792826800799   -0.08827107468866
N           7.37096032126606   -0.23499305866523    0.79780810461638
C           6.53234956321703   -0.42769223919187    1.78890649984923
C           5.24552676683732    0.20875875236741    1.60605724913692
C           5.70738483807386    2.21376300283519   -2.96230743023207
C           4.66147776908818    2.73508619786200   -3.76839709475448
C           4.38903534609225    2.50148973079776   -5.12609332864311
C           3.12879963068800    3.03085549341255   -5.53365214237264
N           2.70248482905958    2.90956097019981   -6.80236488064422
C           3.49159935757137    2.26688560196368   -7.61660528194597
C           4.73137540408646    1.69184807705715   -7.21331428739354
C           5.58094119835948    0.95096952736799   -8.18526970206176
N           5.16715067927803    1.81514339750416   -5.98317781714562
C           2.43554257609715    3.67666961966923   -4.49420459542762
S           3.34689162813687    3.57371242956534   -3.02349560955105
C           1.17921935366180    4.29624097819171   -4.58622589425597
C           0.58822086942638    4.97117229731126   -3.55918133205320
C          -0.70038556314690    5.53846265543452   -3.66193309354440
N          -1.41041289478594    5.52593384222398   -4.78686444951888
C          -2.51376498686938    6.24490497419168   -4.53533835481090
C          -2.50113682761751    6.78331905537388   -3.15969707229770
C          -3.71441986212246    7.57937599273946   -2.89583443503012
O          -4.01517962288050    8.19025360401755   -1.89682704138888
C          -4.45661984569763    7.44441295783509   -4.16415683576197
C          -3.68605836130729    6.63839958056450   -5.13569295272108
N          -4.37670992323384    6.49429555149602   -6.29232495154538
C          -5.50637220479193    7.13147537846752   -6.09765584364727
C          -5.62761570408606    7.73599533873797   -4.78723774066265
C          -1.37592122819529    6.29009430743140   -2.57493337526804
C          -0.88210010432372    6.48043051606169   -1.24013958687508
S          -0.83416690103484    8.08296176690068   -0.57205520815608
C          -0.15122845071925    7.49452556170051    0.88697378331025
C          -0.00344265698148    6.14271048766108    0.88598819161131
C          -0.41403209835846    5.55381020687174   -0.33730430354661
C          -0.45598037298306    4.06121553643884   -0.50760512321864
C          -1.86748684195300    3.59804252559187   -0.14905972919710
F          -2.21084648253075    3.88201937167212    1.11533104750961
F          -2.80172326850436    4.15543738106661   -0.93432043099263
F          -2.01201338769407    2.26855189611332   -0.28731496853904
C           0.57118692404212    3.31217422536949    0.37420581162926
C           1.46507431856887    4.23802859824793    1.19334067209924
C           0.62694953248413    5.27984522590207    1.94420704148739
O           1.45730802250313    6.00547520672494    2.82793963061609
C           0.81848229296626    6.44333339582114    4.00114869018376
H           8.52894503705213    4.04529514299804   -7.43028408178962
H          11.01646691718475    2.67505321742142   -7.49983106130803
H          11.99617596082621    1.27807186124955   -5.85755570173434
H          11.78280992903973    0.19500072894977   -7.23992004593873
H          11.11045853903918   -0.89546883725228   -5.14378404100103
H           9.65253318272337   -0.65762404578433   -6.12127033512176
H           9.25679496009167    0.05625088958551   -3.74249283273684
H          11.60916513050553    2.11924912025531   -2.07738699831693
H          10.19253716299578    1.05743296376214   -1.82956243203304
H           9.97990978269462    2.67116404648046   -2.54357228366148
H           6.82700128237363   -1.01250668334966    2.64262889099576
H           4.42265430444030    0.16116435257498    2.29142972466308
H           3.15561915641992    2.17638120128017   -8.64035134315946
H           6.36254262638319    0.40938727958749   -7.66063716881543
H           6.04648112240116    1.65384142509035   -8.87634281794169
H           4.97979524681718    0.25771229120261   -8.76910895743539
H           0.66009061613071    4.21324015943883   -5.53143551412331
H           1.12075526880144    5.10204213762635   -2.62566227926744
H          -6.24466959682475    7.17755736745775   -6.87962948683335
H          -6.47288036945403    8.29111499810953   -4.43150836129645
H           0.12099457914830    8.18841857789630    1.65606336643797
H          -0.33724556241437    3.78886572263307   -1.56068148710951
H           1.20803178251429    2.68919353168956   -0.25152476289106
H           0.03370503293796    2.65247214608313    1.05875426912367
H           2.17363800701072    4.75834864591267    0.54794560939696
H           2.03884528051512    3.64730429098629    1.90588868285227
H          -0.16044196288053    4.76311968563954    2.51699146625976
H           1.56390897001507    7.00436625310634    4.56186617230913
H           0.47355004125619    5.59437336289010    4.60456983892892
H          -0.03930606721359    7.08959204580185    3.78732138658433
