84
 SCF done       -174.317860382460          0.000762351228
C           0.03297886626457   -0.71590828851665   -4.32882946318585
O          -0.30506129645510   -1.32175840110330   -3.20437726495337
C          -0.47837499299729   -2.64360385216467   -3.47874540144207
C          -0.24488850429686   -2.88052441344491   -4.80929183842455
C           0.09223580374430   -1.61831401419336   -5.37495943653063
C           0.43586683509353   -1.27759475976580   -6.74055809086052
O           0.71453682976900   -0.18138220744616   -7.14855101843035
C           0.42222943070379   -2.49383538511967   -7.71464510720260
F           1.28800181057072   -3.44438078093179   -7.32416564636534
F          -0.78986529344514   -3.07200487429723   -7.75765137345260
F           0.74360747651058   -2.14670256270627   -8.95560336045397
C          -0.84615200894747   -3.53288012341675   -2.41945433589727
S          -1.07982168991424   -5.22452794449226   -2.71345290744780
C          -1.45177823322423   -5.51834855892057   -1.04038434429112
C          -1.39350235765696   -4.32541008367291   -0.31188447760176
C          -1.05107162732923   -3.21141451147459   -1.09921235118086
C          -1.65442092466210   -4.20153649832977    1.06251153268068
N          -1.86544933187775   -4.05912613344032    2.18193885013993
C          -1.74731721566461   -6.84088976003215   -0.63276388310642
C          -1.99739356041064   -7.23059999521791    0.64731222004649
C          -2.28332434938474   -8.57246745591707    0.98674440283090
N          -2.53376149616093   -8.99661594476872    2.26852366725654
C          -2.60363187571941   -8.17211621973750    3.45239688353332
C          -3.92347987600627   -7.41105157042561    3.54113846412409
C          -2.78215531307897  -10.37865773085991    2.32645172984281
O          -3.02354139639752  -10.97540898727192    3.35621085421371
C          -2.66368267085689  -10.82301604905254    0.95242368150812
C          -2.35767323936517   -9.69826181027295    0.15851857797855
C          -2.23237622598828  -10.14095387684109   -1.21590336059051
O          -1.97464483743438   -9.53845632416582   -2.23940548260127
N          -2.47166945632199  -11.51977566598358   -1.15982248697990
C          -2.47822031920953  -12.32824065575559   -2.35720660092894
C          -3.89597296053579  -12.61087831278457   -2.84652261150694
C          -2.73606348660323  -11.94968153212058    0.12105484323946
C          -3.01447838462778  -13.28819694765987    0.45487123562452
C          -3.26376363521305  -13.70050449369406    1.73426230568136
C          -3.56748532779938  -15.03432146791758    2.08202068052443
C          -3.72892494147487  -16.13557971107814    1.26022147741861
C          -4.05458463829615  -17.26877914970460    2.04864640074254
C          -4.07612383615079  -16.80018355948400    3.45159427699084
C          -3.78981223194599  -15.47445291787704    3.45538570630477
C          -4.34215190972701  -17.57131102082952    4.58904224354314
N          -4.55472784536787  -18.17424887718133    5.54322223456037
C          -4.31957298328717  -18.54628663740240    1.60358783146762
C          -4.67219336983865  -19.68277960579759    2.38711521723896
C          -4.87798117643491  -20.76159746610653    1.55127520808990
C          -4.64714655978935  -20.32562778731189    0.18569943747334
C          -4.31222306931436  -19.00682352679304    0.20598612117531
C          -4.01221812765409  -18.23468219434514   -0.92118860641812
N          -3.76538830407896  -17.60423784207689   -1.84997245021747
C          -5.24721990737101  -22.05686871614358    2.02161368413830
O          -5.32179846134865  -22.19883202412820    3.35393178034650
C          -5.67578331121966  -23.46149606979452    3.63426585519362
C          -5.84339793085685  -24.18077227535738    2.49814067779460
C          -5.57140059617374  -23.28752563808243    1.41522564967985
C          -5.64876001582511  -23.62136705382945    0.01843674201374
O          -5.46248897735027  -22.90647513043418   -0.93771921939174
C          -6.03223671674102  -25.10874737361068   -0.25721502167562
F          -5.15883193820247  -25.97014548414327    0.29363881670181
F          -7.24431342111044  -25.41970538286449    0.23565816473890
F          -6.06349062684430  -25.36479246121068   -1.56155085019500
H           0.21340986369235    0.34134242872096   -4.31136230311584
H          -0.30695832509013   -3.82703431409129   -5.30483309239341
H          -0.95803485784076   -2.21265935238187   -0.71162352742668
H          -1.76283318024247   -7.58271891365753   -1.42167496025471
H          -1.97499668978155   -6.50615842476687    1.44641750880558
H          -1.75761301170646   -7.48008784267503    3.46726800802543
H          -2.51627648548204   -8.85613363340769    4.30104661297254
H          -4.04487932934558   -6.73719068000953    2.69625257792084
H          -3.94403995338690   -6.82522724624335    4.45529607660933
H          -4.75727331480530   -8.10884827269851    3.55456645550699
H          -1.93755590658762  -13.25991519906764   -2.17156331901788
H          -1.93740190257209  -11.75207212797625   -3.11297027859776
H          -4.47265897153289  -13.14318218996680   -2.09358624606636
H          -3.85701691804139  -13.21764252250070   -3.74644334173201
H          -4.40392778779114  -11.67748113717171   -3.07687274769018
H          -3.02635224001454  -14.01342052297588   -0.34528702837558
H          -3.23559051163835  -12.97629551411251    2.53797407269339
H          -3.64077321618169  -16.15361837224687    0.19287451372984
H          -3.72700076727987  -14.83067720904032    4.31321295105641
H          -4.76749375421286  -19.69082086888029    3.45477408402619
H          -4.73227452686882  -20.94885519760023   -0.68219259727054
H          -5.77428196416381  -23.72400796603291    4.66903944141706
H          -6.12620051785827  -25.21023882171605    2.43739667570473
