97
 SCF done       -182.373356734373          0.000499033493
C          -2.11393919622861   -0.08480612522397   -2.72764091250897
O          -1.50156981711713   -1.26017896931319   -2.58932240246959
C          -2.34397236161497   -2.08523917193408   -1.90999765867356
C          -3.50455369160469   -1.41689446077240   -1.60821737007276
C          -3.35581023656649   -0.11246242944696   -2.14399783154849
C          -4.31264437678624    1.00226682693912   -2.10342479470795
O          -4.10497350673532    2.09842752654384   -2.55937272973833
O          -5.45092328942415    0.65107234219782   -1.49147493606259
C          -6.44505651046802    1.66140530037796   -1.40813907786475
C          -1.93988369597857   -3.42354799307293   -1.61123861819834
S          -2.90065404266779   -4.38757917536541   -0.54539780352852
C          -1.80011238392055   -5.72786361436736   -0.68495105478192
C          -0.72905746188569   -5.40308138166119   -1.50459808624541
C          -0.82314233352021   -4.11077898773578   -2.05260646649105
C           0.14065023186024   -3.60634013310708   -3.07814355187704
N          -0.57240221513730   -3.03941568120033   -4.26210490784612
O           0.03388212222145   -2.22445189853485   -4.90824881929402
O          -1.66209875537747   -3.48010718054872   -4.52493344316260
C           0.98892573899663   -4.76206518724899   -3.62699707801109
C           1.57027612320610   -5.56577318198271   -2.47271823101799
C           0.45021233478738   -6.29493090034504   -1.71759843706648
N           1.06293540545123   -6.72600076208843   -0.41382199379934
O           0.71559017911000   -6.16621410197173    0.59434431027998
O           1.91317777342455   -7.57212452720957   -0.49230794796254
C          -2.01682886016453   -6.98379276868077   -0.07517000596624
C          -2.98121006109178   -7.29053719795710    0.82743539657032
C          -3.07232074686515   -8.60793637516835    1.34302419975547
N          -3.98056021717640   -9.02321112379893    2.28488803589223
C          -5.03552047498454   -8.23191372886478    2.86797437818819
C          -6.22134941653624   -8.08076267484742    1.91795344044258
C          -3.81515268140563  -10.38591948088268    2.61694795494147
O          -4.50131117033921  -10.96634993369763    3.42967776740618
C          -2.70460529353076  -10.81296889641537    1.79555530735530
C          -2.27072270697691   -9.70553017495520    1.02734636814523
C          -1.17449060465702  -10.15485658993379    0.20874896916017
O          -0.49960060093676   -9.58021385226860   -0.63285697806317
N          -1.00239353409318  -11.50706002789889    0.54174644779944
C           0.06437459189416  -12.25362556139216   -0.07904281004691
C           1.30661876557540  -12.30897106473917    0.80781166931332
C          -1.91362710078932  -11.91632237378569    1.49539824488909
C          -2.12350386738210  -13.19377387949068    2.08572581519300
C          -1.40106931991116  -14.32954547164195    1.97122025113148
C          -1.72647249167697  -15.59220019501566    2.58866771134936
C          -2.90283594514102  -15.82717872706597    3.30296879753851
C          -3.15985601888858  -17.06988955670174    3.85356735081509
N          -4.36402032738360  -17.20341727120442    4.63464449025978
O          -5.28601975751254  -16.46401085172425    4.36539986374562
O          -4.37493957468508  -18.02442008246411    5.52776726221177
C          -2.27249785406379  -18.15238001375677    3.70957643284380
C          -1.09166342699815  -17.89893078083068    2.99986546856655
C          -0.82570360204174  -16.66284762827679    2.46118161045903
C          -2.59317519324465  -19.48062592112835    4.17884116914201
C          -1.67788065745480  -20.36384208628897    4.61114641302755
C          -1.94552531118029  -21.69390021130776    5.06991868840194
O          -0.88685104111188  -22.35696728753711    5.58406306626686
C          -1.30496599531327  -23.56148380878033    6.00045793725425
C          -2.63478485274922  -23.71269121694510    5.77396758475968
C          -3.07376472791559  -22.50564588457863    5.16216612856103
C          -4.45039424073126  -22.27056440892100    4.71735429861966
O          -4.82214346963597  -21.40705072221941    3.95794397580809
O          -5.28517065909695  -23.17687743453544    5.24692536375665
C          -6.64989259281683  -23.04032277663380    4.88276890348285
H          -1.59727468526623    0.69350110450133   -3.25289835495987
H          -4.35258561002893   -1.80166529702526   -1.08200485042794
H          -7.28488920728264    1.21830211422558   -0.87950112137808
H          -6.74538486716805    1.98077404101607   -2.40815575894798
H          -6.06135706920848    2.52745784842528   -0.86496153500063
H           0.77997972275224   -2.80590855118904   -2.69050640636448
H           1.78814445568693   -4.36205244983240   -4.25206620485379
H           0.35801836784195   -5.41086983161255   -4.24007044772328
H           2.08558804255607   -4.88569846000914   -1.78877656275450
H           2.29461068756998   -6.29330429743887   -2.83870935269650
H           0.17302471372948   -7.22196351213837   -2.23216014944664
H          -1.34629935038030   -7.77347653952000   -0.38567485657569
H          -3.66972427046894   -6.53326342021678    1.17337931111972
H          -4.64126433087723   -7.25367981574505    3.15736919826184
H          -5.35232986268216   -8.76679777292781    3.76777147522484
H          -5.92134162227371   -7.59040063052913    0.99436648163106
H          -6.99988118437347   -7.48969320772192    2.39203123426491
H          -6.62764854373157   -9.05936678512950    1.67470527645808
H           0.30963171580253  -11.71411901400111   -0.99917146368812
H          -0.29265898836855  -13.25109251876600   -0.34547417664318
H           1.68869124095787  -11.30273392367451    0.96102050700946
H           2.07926193515819  -12.90276682796893    0.32667308097705
H           1.07892489485789  -12.74190632144309    1.77956195861788
H          -3.00188517152134  -13.19087172722387    2.71797297838825
H          -0.49202695713803  -14.34708090254674    1.39048222615893
H          -3.63554043316523  -15.04821783907183    3.44880943494206
H          -0.39534524065533  -18.70919881499567    2.84945800821397
H           0.09532662786673  -16.51042499549258    1.91676033329634
H          -3.63322862109221  -19.77125673618873    4.16942504060090
H          -0.63492766940086  -20.08445398286015    4.69679466008387
H          -0.57139843330885  -24.21228921466666    6.43364463589897
H          -3.24531787700408  -24.56216487484811    5.99653506531064
H          -7.18420093400248  -23.83020336377806    5.40376426283687
H          -6.76721688015252  -23.14401033740126    3.80197115958700
H          -7.02515958988438  -22.05970123317619    5.18233778624168
