94
 SCF done       -180.054633061888          0.000399360175
C          -3.43369456693579    1.10617375159916   -7.94243849257349
O          -4.07341553301389   -0.04017465855371   -7.76147354981417
C          -4.89621323070926    0.10729069116980   -6.69530321774784
C          -4.78084140888143    1.37782451944392   -6.19219631166772
C          -3.82617584283934    2.03626132437305   -7.00977041004081
C          -3.34427835675885    3.41856508456451   -6.90616745211120
O          -2.50074537324196    3.90656020574083   -7.61569302199899
O          -3.95619673547004    4.08018360109093   -5.91274217835656
C          -3.56803228594079    5.43493865841871   -5.74260018371183
C          -5.79113974923171   -0.97480767884454   -6.34138342721652
C          -6.72753534655078   -1.52401678821231   -7.18649799330634
N          -7.07021748551307   -1.07730492426611   -8.48090302656425
O          -7.87986445942252   -1.74234084402756   -9.10157324334287
O          -6.56769973154094   -0.04709434558222   -8.89196251996994
C          -7.43764001596680   -2.58510129188378   -6.50872239726668
C          -6.89882134159136   -2.73083504315317   -5.28058758588546
C          -5.81857384645332   -1.77990943539703   -5.11625882431331
C          -4.93630331847608   -1.71745803667377   -4.06090499624174
C          -4.11013000015661   -0.61380456812917   -3.67448815481245
C          -3.63525774708442   -0.84729318192783   -2.42472742331046
C          -4.08123370395583   -2.13839481420555   -1.97282600147447
N          -3.66408213444149   -2.62422442802660   -0.72461885972915
O          -2.74596447976120   -2.03548448668254   -0.17859260723275
O          -4.23676246056694   -3.58490166888083   -0.22761368766313
C          -4.82133946287777   -2.74292356210576   -2.99212582322328
C          -5.20727931577442   -4.07599701223754   -3.23331759829532
C          -5.41851666451610   -5.07926715822498   -2.32550926591209
C          -5.79551831080576   -6.37227197250425   -2.73477662463045
N          -6.08728317447613   -7.39226738834305   -1.86342015100970
C          -6.07101565607647   -7.31714390193790   -0.42064909370891
C          -7.34502257932112   -6.67645492859842    0.12282261860668
C          -6.48914301318965   -8.56252065103753   -2.52655067282834
O          -6.77643386817411   -9.59486543985980   -1.95936636148021
C          -6.42805182433211   -8.21191338009569   -3.93424425228158
C          -5.98050055535545   -6.87864120195589   -4.03226239209239
C          -5.87801623333956   -6.54639155502800   -5.43799751838681
O          -5.54216402116095   -5.53205127129280   -6.01574893702947
N          -6.28162007562549   -7.71899895998520   -6.10365372130156
C          -6.28169668755640   -7.79316171178989   -7.54516518270502
C          -5.04175427477989   -8.51059107673280   -8.07295399345784
C          -6.62268980984101   -8.71503058067259   -5.22597453225280
C          -7.12108945284376   -9.98421660936437   -5.62029623336865
C          -7.65298649927999  -10.84872753408209   -4.72592722440405
C          -8.19604344561994  -12.13496274811442   -5.05996020770138
C          -7.80786794684856  -12.92146346165563   -6.11464254017286
S          -8.61479237892875  -14.43028108694610   -6.15423736885483
C          -9.51621188470890  -14.03071502556668   -4.75551101223599
C          -9.20136151384308  -12.79468995348535   -4.27103244433010
C          -9.89128241153915  -12.15568478037288   -3.13977579536820
O          -9.92364093312094  -10.97216750902166   -2.92342522447727
O         -10.52901689933303  -13.07940662969546   -2.37999160855157
C         -11.22919705139931  -12.64161585724274   -1.29289458391417
C         -11.91019219583828  -13.50072694378001   -0.52822135457305
C         -12.65886795944313  -13.08567152449222    0.62117814207699
O         -12.68153888935793  -11.78453935333202    0.96887295485673
C         -13.44625878205208  -11.66213560116926    2.06901439885265
C         -13.93366153024018  -12.86775051083788    2.45577480564668
C         -13.42851288680436  -13.81333188764436    1.51916097897932
C         -13.72770857652749  -15.24524428358116    1.58287151879770
O         -14.41706063202762  -15.75220777926391    2.43313168026705
O         -13.15529067155578  -15.95208379962873    0.58946820733078
C         -13.41667818939500  -17.34805510212367    0.60702970976211
H          -2.72340100468851    1.17502518270435   -8.74239095875605
H          -5.33163423049123    1.80937747937658   -5.38204132932310
H          -4.14297355326338    5.81263935977401   -4.90109768253421
H          -3.78724649900568    6.00798317374583   -6.64580272041734
H          -2.49733398167459    5.50033231626996   -5.53815196208071
H          -8.26028822785509   -3.11800992394743   -6.94415622306697
H          -7.25470732329764   -3.38302915558206   -4.50844373411234
H          -3.96248212784914    0.27588475126112   -4.25087244531454
H          -3.02097158697109   -0.20043764185225   -1.82669718968312
H          -5.33840010102735   -4.31668910782066   -4.28027052761797
H          -5.33040105021022   -4.88242208403458   -1.26876312811841
H          -5.18931980651271   -6.76091261966805   -0.09446722116928
H          -5.99685550145473   -8.34795172876385   -0.06370858369203
H          -7.44637912769233   -5.65337349472726   -0.23141022773688
H          -7.31326282119613   -6.66603277232605    1.20831270056166
H          -8.21444457721233   -7.24659017516907   -0.19610626597732
H          -6.28544717296068   -6.75980761735664   -7.90285972747812
H          -7.19558555410682   -8.28740014925518   -7.88499077857033
H          -4.14556825768359   -7.97857843666017   -7.76361079599417
H          -5.06927807513398   -8.54056254552883   -9.15845313722419
H          -4.98650383878791   -9.52891790293568   -7.69415991837923
H          -7.11449050353265  -10.22587955305504   -6.67349979796332
H          -7.71618485664997  -10.56520826166943   -3.68421936003678
H          -7.05165205537766  -12.71091275468545   -6.84435370960938
H         -10.24414364274120  -14.71576405878317   -4.36919774338344
H         -11.18904859793957  -11.57554316439671   -1.10774359804246
H         -11.92210028252646  -14.55446157939721   -0.75255631704569
H         -13.56360199746813  -10.67640753316983    2.47337648539882
H         -14.56788901874615  -13.09167400477393    3.28739713031414
H         -12.88446529308682  -17.76822759100012   -0.24251392641388
H         -14.48899434841087  -17.53450984039309    0.51924121461772
H         -13.06058957296548  -17.78936047236700    1.54011374568900
