91
 SCF done       -176.641786079539          0.000215570572
C          -0.83426594586044    0.92280681854841   -0.84051634486941
O          -1.33526965615401   -0.30225677462910   -0.82833702389316
C          -0.35162698006201   -1.15477101520513   -0.44004725761769
C           0.80493043848828   -0.43894647456818   -0.19987576261855
C           0.49025850814679    0.91374013586786   -0.46266315380356
C           1.40856257885146    2.05716688258062   -0.35091984878761
O           2.56109924198861    1.98538160542418   -0.01310177930387
O           0.79644812433057    3.20671678140002   -0.67904155391932
C           1.60269975319589    4.37474431420999   -0.60524354039776
C          -0.65630677289319   -2.55334835440537   -0.35833934307785
C           0.29276754208109   -3.52509428786163    0.03580837685238
C          -0.04951383313141   -4.92576717215544    0.15993411158806
N           0.85128628897062   -5.78867487347468    0.66240990300844
C           2.05097184975331   -5.36319264727081    0.97065617121322
C           2.41926303869286   -3.99451239614486    0.75478881882106
N           1.54383438573910   -3.12731953882844    0.31662037487976
C           3.74674427478917   -3.57186181859830    1.02050634802265
N           4.82943264123704   -3.27458884311381    1.24565072772274
C           2.99078476888242   -6.28013225312527    1.50461951052734
N           3.77446644571122   -7.00149761325966    1.92576560642790
C          -1.33554208348395   -5.40291549308643   -0.15716320332877
C          -2.26277450928097   -4.44000379140397   -0.59736968021510
C          -1.94242068458218   -3.03453550973719   -0.67186193078020
N          -2.99287117644932   -2.31824498983303   -1.08374818278705
S          -4.22012386690556   -3.30391807144660   -1.36136314939818
N          -3.50733385102469   -4.68869469295574   -1.00761978329573
C          -1.81973058784255   -6.73898109977354    0.05679477115193
N          -1.20764078770699   -7.92077720163759   -0.24299275699433
C           0.01240869319635   -8.11252832388798   -0.98916035113547
C          -0.11363592162849   -7.59863626496495   -2.41972496394230
C          -2.02750816748409   -9.02374663804188    0.08581221645457
O          -1.70715867759018  -10.17621664889349   -0.12420790737487
C          -3.21208421248540   -8.43515264283688    0.66699635240867
C          -3.06046311427731   -7.03123202594197    0.61928096011108
C          -4.21928643729605   -6.42739078110819    1.24934643189075
O          -4.52067212916875   -5.27602247213392    1.48067074071104
N          -5.02818289833863   -7.52590480251387    1.59251439722619
C          -6.28641973219943   -7.34256991993245    2.27659937383403
C          -6.17077436260975   -7.63047832716644    3.77118549898046
C          -4.44566853515724   -8.72688467320534    1.26190695249469
C          -5.05567287777967   -9.98013253252917    1.47606479734943
C          -4.45104516160195  -11.16066625296906    1.15459109241492
C          -5.05448497291863  -12.42865856745782    1.32284770492217
C          -6.32051041944278  -12.73808076184793    1.78161550942520
C          -6.50229618938086  -14.14830086764990    1.75095884022659
C          -5.23530543405248  -14.71201082584000    1.24315812022462
C          -4.38814869447745  -13.68159260409297    0.99146329252320
C          -4.93861076498193  -16.06528430793998    1.04473030718307
N          -4.66070953414677  -17.16588670440491    0.86863111900505
C          -7.63420706306254  -14.84923387611946    2.09882786152037
C          -7.83635980524386  -16.25948762829455    2.04696344560077
C          -9.12137247248655  -16.54531454430082    2.44789627050956
C          -9.78374908404988  -15.29430380521717    2.78202287440186
C          -8.90603891301374  -14.27622013360683    2.58131211831222
C          -9.17984219140304  -12.92274226567331    2.80023496762180
N          -9.41485578538020  -11.81252925044784    2.98421957699010
C          -9.67034541737976  -17.86258583780048    2.50962305579419
O          -8.82629316202991  -18.87101532989769    2.20452762237412
C          -9.49505141031125  -20.02540901543176    2.29639847726484
C         -10.78707235717605  -19.80677528445339    2.65724388482864
C         -10.92633620441776  -18.40001156000385    2.80371802223405
C         -12.18563764457734  -17.74955472066416    3.18137772748581
O         -12.36087932225214  -16.57305222421915    3.39045880792454
O         -13.17245240538351  -18.65414056793187    3.27569438589458
C         -14.44573871259156  -18.14295899285793    3.63689759724562
H          -1.47909660484294    1.73091850293494   -1.12508773843498
H           1.75179291202577   -0.82017508966542    0.11783440988333
H           0.97179840983913    5.19950264083227   -0.92569497782063
H           2.47177034466967    4.27763833949479   -1.25904995496551
H           1.95038590280490    4.53160269046173    0.41783139593832
H           0.19231534752989   -9.19103795649320   -0.99048904119752
H           0.83469115652221   -7.61415917214478   -0.47042949336972
H          -0.93340405082164   -8.09846301750489   -2.93091302235467
H           0.80683676250775   -7.79659048300797   -2.96178068245146
H          -0.30083801247410   -6.52643160823755   -2.43208627841514
H          -7.04939207788333   -7.97684278325570    1.81729843294040
H          -6.56113418813105   -6.29511342302211    2.12500611473420
H          -5.85424591070851   -8.65566304240631    3.94919399637849
H          -7.13398938376699   -7.47596806981033    4.24889296591824
H          -5.44484303252744   -6.95989035914476    4.22456431530450
H          -6.04794660235153   -9.99067837498434    1.90241231554394
H          -3.45189887847909  -11.14602636343266    0.73919129522785
H          -7.06991839352125  -12.04460936492520    2.10557645893301
H          -3.38594884087483  -13.75010317774035    0.61039395917402
H          -7.10179235480921  -16.97569987916843    1.73655751236697
H         -10.79616211838999  -15.21749937333783    3.12768646595441
H          -8.95140443181374  -20.92496264949092    2.08430066595049
H         -11.55772417489642  -20.53281314590463    2.80740944863056
H         -15.11576488627841  -18.99779150143865    3.67544706252265
H         -14.78911627009406  -17.41893643941816    2.89483383605656
H         -14.39549827433114  -17.64912654268424    4.60966293148485
