92
 SCF done       -199.229799508705          0.000930414635
C           5.63585392052419   -4.49183238915862   -3.40220130437221
O           5.78753206729776   -3.50611826688249   -2.52064303260697
C           6.70884272970822   -2.63584891102920   -2.99229677576990
C           7.16207193137837   -3.08854371841130   -4.22243359736239
C           6.45690498695707   -4.30223892587265   -4.48516715885210
C           6.56003133781489   -5.14911430483548   -5.60536742115853
N           6.62442764544889   -5.85554277435333   -6.50331999283764
C           8.18142676250465   -2.47225204654388   -5.11208478298850
F           9.37122958906547   -2.31505538320341   -4.49584715995190
F           8.41595462598802   -3.19102689016349   -6.20950709905978
F           7.82178951118302   -1.24086838402569   -5.53074606773471
C           7.00004790942968   -1.51516654323384   -2.15239068150954
C           7.84064679211326   -0.49501065465753   -2.41988304137621
C           8.10499288364418    0.58044105561861   -1.52125288623840
S           9.22546317222956    1.82565769470996   -1.98821831209759
C           9.04230853440183    2.65421993177133   -0.47694549585948
C           8.12958544142802    1.97338576246760    0.34033776977420
C           7.61024659802523    0.81420750825247   -0.25477017478389
C           7.74008400953898    2.36965527216513    1.63064643439782
N           7.39375633954467    2.65070733832604    2.68864508581554
C           9.79521552215844    3.82935025979720   -0.24131942712669
C           9.79828846463209    4.53665013379457    0.92066906299938
C          10.60481641941749    5.68437447211670    1.10689585658967
N          10.65764101152549    6.39039058820710    2.28365672092362
C           9.95961804990457    6.08279412813450    3.51001235837665
C          10.64912427918059    4.96546340711581    4.28804291693377
C          11.55493747785438    7.47042842194850    2.21041053414565
O          11.74314419167610    8.25256504902411    3.11758246221870
C          12.09047470977945    7.39882944792421    0.86463648376182
C          11.47386948554566    6.30809853940654    0.20812688892973
C          11.97683744140792    6.26356908982349   -1.14792201660717
O          11.74803906131993    5.51035990355345   -2.07460077323693
N          12.87509939556944    7.34009300975608   -1.22091741838135
C          13.54843605783829    7.67417633458136   -2.45375644260849
C          12.91194626529422    8.87965557374198   -3.14133199563442
C          12.96325930147458    8.01732444616026   -0.02822204862385
C          13.83287658231679    9.11731685891497    0.19464315299620
C          14.00332193661180    9.65295100458805    1.42587983521623
C          14.85501584178315   10.75602490206307    1.75548960123624
C          15.12149124145827   11.89753807761820    0.97185372210421
C          14.60611341302094   12.25678333143287   -0.36948521777617
O          13.85289346521154   11.68615095914165   -1.09825972296690
O          15.15448624310411   13.46789517046310   -0.70858737823310
C          15.96181715188211   13.94633917268622    0.28961033583148
O          16.55062512080576   14.97688823280145    0.17802029076583
C          15.92300572147943   12.96288971173967    1.40230909045893
C          16.57054310999185   12.98824326399207    2.65162556980660
C          16.31237761447091   11.83791704741812    3.42263439179585
C          15.49874941558818   10.79629723020458    3.00788771502699
C          15.52290286726256    9.76339725037385    4.07467833104970
O          15.04524143425070    8.67448194248129    4.10268267270378
O          16.28383095802304   10.26926697958185    5.10447426571065
C          16.78208351653436   11.50808080298860    4.79437044915448
O          17.44571986272549   12.14681698469529    5.54910917045623
C          17.45990769093495   13.99402426953605    3.16747056316447
C          17.42028213368002   15.31588084136853    2.90856554070188
C          18.34766511179604   16.25361143740366    3.45152429315496
O          18.09396891138154   17.56836849863298    3.29972513872032
C          19.08626247597926   18.27480361781334    3.86212349441498
C          20.02363964157298   17.40583130337493    4.39568392111825
C          19.55395368511125   16.09220222670222    4.13319658566651
C          20.20568486355624   14.88567827474031    4.43809882228307
N          20.75981709185591   13.90835503620235    4.66310756701195
C          21.27442654563937   17.80647254328261    5.09631545291843
F          21.02210684090293   18.59611074734813    6.15927463435347
F          21.98563291643141   16.77309862538450    5.54421055168643
F          22.08952833343263   18.52389476728444    4.29716221045809
C          19.07137497870677   19.71451843072247    3.84828724858069
C          18.10515009907930   20.42729470324236    3.27424826835479
H           4.93496104870181   -5.27214385616305   -3.18039374140642
H           6.46023709577461   -1.54221556946256   -1.21641425558534
H           8.37522271460248   -0.44537024973083   -3.35467795612055
H           6.89969206790595    0.17818754315565    0.24160738388042
H          10.42148159273276    4.15997474927482   -1.06077497110983
H           9.18182146718240    4.21998424530403    1.74752840467973
H           8.92301202734696    5.81773675273690    3.28673718669429
H           9.97097194753619    7.00196630902733    4.10206955267022
H          10.67743934860349    4.04568147551574    3.70809039123622
H          10.10856827988696    4.77669047730808    5.21084121191763
H          11.66775996699245    5.25661060253882    4.53260503668543
H          13.45475112435456    6.79191089634864   -3.09348734623609
H          14.60887304567052    7.85332635533319   -2.25525290230346
H          11.86288520175784    8.67868230510180   -3.34452178104169
H          13.41658322682209    9.06789838925712   -4.08485872856381
H          12.98237916422620    9.77220472287782   -2.52448039135955
H          14.39263502731146    9.48817458547054   -0.64890925829562
H          13.50815705677172    9.19217717958881    2.27246484197447
H          18.18145902441234   13.62278815039339    3.88306882209972
H          16.65629542196076   15.75361401057091    2.28450001738059
H          19.90859556949051   20.18961616003654    4.33745478933550
H          17.27506509802258   19.95196912511491    2.77961889256183
H          18.12685274211651   21.50205321794311    3.27665676497684
