103
 SCF done       -189.005437048044          0.000260737708
C           2.49567126491794   -0.15096104967341   -3.05638044518490
S           2.33862497027002    0.44733220178673   -1.46635235056448
C           2.71861109134303    2.06584775699463   -2.00825817677892
C           2.96898532971093    2.08378270763789   -3.37526141545838
C           2.82979549056936    0.81165000054273   -3.96604998634423
C           3.03089116271225    0.57212218503815   -5.42795113567819
C           2.84931528382604    1.86670921816905   -6.21219765957450
F           3.22056803333348    1.64347549801702   -7.52065861263226
C           3.72802831923069    2.96442846696581   -5.61239154328181
F           3.60570327667799    4.11467736860793   -6.36126263759610
C           3.31763595713502    3.29492276100278   -4.17636843295699
C           2.70845757017662    3.15220245606105   -1.09308705051621
S           3.01101283890359    4.80027544539615   -1.59754145448297
C           2.77726356296860    5.45980959594613    0.00753587545746
C           2.48119606494229    4.42830801624297    0.88509330358706
C           2.44892072708790    3.14690453307252    0.26914636175562
C           2.14653296040532    2.11413727432722    1.24785503789638
O           2.03416348587069    0.92200098288063    1.07086787176803
C           1.99221933632291    2.82484794819948    2.58176287681410
C           2.19079452412367    4.30758068291805    2.31087112575137
O           2.10654921359131    5.18031946880858    3.14562449569890
C           2.90898491056034    6.86034125537205    0.15972783708615
C           2.66121797609235    7.53943456921972    1.31119621454535
C           2.78352451015895    8.94686257492296    1.39347278342243
N           2.44859706483318    9.67410827221552    2.51131680235393
C           1.88513764367208    9.15645911846243    3.73497724440304
C           0.39584941276693    8.85469360229541    3.59137029763837
C           2.64978430393835   11.05618494995757    2.32446621096485
O           2.42480656581495   11.89337878299022    3.17227943508518
C           3.16429665764221   11.15356869247405    0.97591747338661
C           3.24038038080008    9.85151358014001    0.43289888232413
C           3.79258183945476    9.97013143418181   -0.89680961843401
O           4.03349302622715    9.13863706128131   -1.75212462656805
N           4.03787866266823   11.34651658250131   -1.06456800517057
C           4.52818015513838   11.83052199977795   -2.33408717580363
C           3.43672976620045   12.52445000260301   -3.14378738779159
C           3.65088059705604   12.06854529713918    0.04387394271098
C           3.69183199719711   13.46358977095500    0.28604468071556
C           4.30049815879012   14.44054337045257   -0.43242432330548
C           4.25173394246114   15.81182228975281   -0.08069456122785
S           3.19002801944534   16.38865808573483    1.16777005819109
C           4.97753771875069   16.85859523526388   -0.63210718878983
C           5.97912063810140   16.65287706498614   -1.69569399549425
O           6.20577103775244   15.57490792092246   -2.22635855607820
C           6.68192262117874   17.87158625224732   -2.04617693689407
C           7.70329729671428   18.08252744974430   -2.94708216456823
N           8.04436604360362   19.39242858323925   -2.91162886994466
C           9.03206060523006   20.01784542326327   -3.75441846943577
C           8.40419373674887   20.52829235459096   -5.04972669727719
C           7.25892038307932   20.04181473208327   -2.02029770481080
C           6.39649929380215   19.13013219239813   -1.45072705827438
C           5.36248178818567   19.34528066182436   -0.45611154146017
O           5.12116064743687   20.46271540100414   -0.01441043607629
C           4.66653717379474   18.12564840639824   -0.04941388288599
C           3.68747167148887   18.04814229357572    0.94943556196750
C           3.04006750720527   19.05329466508840    1.72776593288806
S           3.20020906278739   20.75940838646394    1.37006477324086
C           2.04389976965104   21.15480512884627    2.55683471575240
C           1.58224484945260   20.07059210608335    3.24678709847823
C           2.14185590489336   18.86468589610564    2.78134328453744
C           1.75329559004615   17.55800585000851    3.39566589209960
C           1.00274951515216   17.71852041962165    4.71816652608510
F           0.40938848839852   16.51160336948130    5.01483780974692
C          -0.06526685069305   18.80548757101425    4.62003605627584
F          -0.77237524505499   18.87350280512100    5.80203709423721
C           0.60262453861651   20.15157311296384    4.37464052939555
H           2.33441622198759   -1.19307740678285   -3.25073608270767
H           2.33404384933386   -0.18407845988979   -5.79274606464887
H           4.04449450492150    0.20172212085273   -5.61255098075509
H           1.80217623696169    2.19224151820710   -6.24015436180858
H           4.78182947417263    2.66701010742111   -5.68286358344475
H           2.45355014331279    3.96719960549157   -4.22493490668349
H           4.12766983761845    3.85417855111551   -3.70126400153789
H           2.72821620404307    2.46132864708801    3.30235328140016
H           1.00945766316419    2.63377152050813    3.01797176794240
H           3.21459774457440    7.40399020915606   -0.72545070799028
H           2.35101954791080    7.00173902882145    2.19452052373405
H           2.03126500493921    9.93679857508927    4.48711265744421
H           2.42925603368954    8.25893329448931    4.03950776078732
H          -0.14189006251547    9.75557675428228    3.30546243487412
H           0.00266592118473    8.49939700800772    4.53943945712737
H           0.22719243353875    8.09014238542777    2.83660806436545
H           4.86969972093029   10.94052456587715   -2.87175204553830
H           5.38503653150535   12.49003111918728   -2.18041174982127
H           2.62793718089103   11.82780124257654   -3.35191970566507
H           3.84957318873189   12.87245122194387   -4.08621088042531
H           3.03154090862386   13.37773807010244   -2.60543797192275
H           3.17934217377586   13.74013804658794    1.20167624503873
H           4.89215645994635   14.22925703148429   -1.30871769379563
H           8.19864561783143   17.38116872089947   -3.58864421005280
H           9.81072630013492   19.28469148753474   -3.97945109614120
H           9.48207249749967   20.84860081614960   -3.20477962966955
H           7.95610095628810   19.70642682044535   -5.60282686906902
H           9.16280450450450   20.99506569935152   -5.67131014499903
H           7.63082290693000   21.26096282835224   -4.83239402347344
H           7.35611658305099   21.09234501484275   -1.83153826584070
H           1.77617104198432   22.18038074312896    2.72006821966510
H           2.62967205327522   16.93001745527916    3.57403532001616
H           1.09531023211634   17.00556316626517    2.71525674220897
H           1.67882476770599   17.93988411991796    5.55336606221827
H          -0.79381271767288   18.55122327880049    3.84062431815001
H           1.11911115088286   20.44476757309932    5.29463737378193
H          -0.15287265911969   20.91158942507497    4.16831076265564
