107
 SCF done       -196.863649124622          0.000514258894
C           1.50040650360584   -0.90629492724894    0.71583886758066
S           2.51167872416803    0.17949994150869    1.56169680679068
C           2.36774314667389    1.37904258134240    0.29720995795577
C           1.58966099020446    0.89574755112399   -0.73596989267044
C           1.08076063004575   -0.40046845273510   -0.47639709672294
C           0.17152638855596   -1.10786870184030   -1.42692161207433
C          -0.56038181029301   -0.09966112301769   -2.30662118709349
F          -1.27284609161377   -0.78931156537655   -3.26284434833081
C           0.45232835984591    0.81796132706864   -2.99094443309910
F          -0.20401675589542    1.69370241821201   -3.82871819353054
C           1.24820226048977    1.64747296460246   -1.98153753777643
C           3.03686297464207    2.63776723261386    0.42421759092260
S           3.47614891250853    3.56181323538073   -0.97877837827673
C           4.26391123185718    4.77493063823231   -0.01909901145505
C           4.19031888152260    4.45451182621745    1.32852735598187
C           3.47025702783284    3.27262947653875    1.58056598283513
C           3.11118391011459    2.86755393406541    2.97567262327940
N           1.65264941323318    2.56834302115371    3.09721470951657
O           1.32703399581566    1.89591573597669    4.04187713306727
O           0.90312311899863    3.06748609112002    2.29701770392342
C           3.36272512708905    4.02347659397537    3.95502816838296
C           4.77372871313997    4.55667680221980    3.76076363310100
C           4.88708434266521    5.23875909084973    2.39167615620393
N           6.36288876852124    5.35617886028538    2.11416573690867
O           6.82775173783360    4.71989429459887    1.20391381416010
O           6.97960703934757    6.05050876741585    2.87663803016300
C           4.85602521839390    5.93073936693604   -0.56988437113330
C           5.02918880195372    6.18908221244729   -1.89195303555011
C           5.67252494824162    7.37711620675144   -2.30900735138474
N           5.92701721968557    7.71219264880176   -3.61427101801248
C           5.50949450500246    6.98261813270190   -4.78663820657001
C           4.02822682612652    7.19582596423669   -5.08824904227367
C           6.63119928295817    8.92618152580383   -3.72023620811741
O           6.96590977203861    9.41167758200497   -4.78120380323617
C           6.81692887937822    9.35431285439891   -2.34996724252319
C           6.21118189282772    8.39206366736445   -1.51067158022486
C           6.38813903643165    8.82002421233744   -0.14221646842789
O           6.01443384627348    8.33423488309196    0.91401569336376
N           7.10273850052002   10.01581382512688   -0.23787151258339
C           7.54182931374801   10.71764680053438    0.94433423346092
C           9.00271693638662   10.41698493543101    1.26989166148968
C           7.37689252112329   10.35466265477707   -1.54796281560977
C           8.07915457785342   11.51501216008899   -1.93139182276886
C           8.33596857226029   11.81591529333875   -3.23835332176982
C           9.02120793347983   12.96462287307346   -3.68901463448421
C           9.28677723715246   13.26199176496415   -5.01465718580353
C           9.98640807991924   14.49347646571320   -5.09300381630751
C          10.14107078182637   14.96088658147901   -3.70160592662505
C           9.56586726651442   14.04501788854708   -2.87930199610192
C          10.75160564913142   16.14516308155267   -3.27652226049061
N          11.23967996511634   17.11245728623992   -2.89314674522322
C          10.43640515237112   15.14164861338866   -6.22365447766831
C          11.14212961839152   16.37609777381103   -6.29374342422247
C          11.37731474554972   16.68904203323296   -7.61343928911201
C          10.80738566379006   15.62762991985856   -8.43002464947693
C          10.25573246772494   14.69143845092415   -7.61495601230665
C           9.63407310217593   13.51907269397988   -8.05724119282117
N           9.13619026766978   12.56918414838023   -8.46923998714794
C          12.03460424645165   17.81947959170002   -8.17511424855443
S          11.83683936846629   18.14929585595453   -9.88004207659879
C          12.81427757845975   19.54493634406222   -9.76610769257304
C          13.28839497101867   19.75287713555549   -8.50201398633866
C          12.84916255102923   18.77077226351044   -7.58529457366792
C          13.26563504297606   18.78866464199036   -6.15161992252759
C          14.47814352274390   19.69199799076002   -5.93027096808060
F          14.64119828457013   19.87352094911343   -4.57630592773645
C          14.27577431701898   21.04799133197685   -6.60859768790922
F          15.34134081688038   21.87441357943390   -6.32291841246465
C          14.20010557624343   20.87560341651631   -8.12270906533338
H           1.26875923134584   -1.85731794886915    1.15168017350304
H          -0.55029635581583   -1.72110938603818   -0.88544284363310
H           0.74877278712796   -1.77350700514678   -2.07714485320950
H          -1.29050192873536    0.49164484532931   -1.74084883749693
H           1.10566235804949    0.21649739248147   -3.63617222105632
H           0.65058994612646    2.52738809940567   -1.72095969964582
H           2.15568252262307    2.00710461875218   -2.47081862895047
H           3.64562815927189    1.97165291032230    3.30823684356862
H           3.22590214344160    3.66601323151927    4.97612451491441
H           2.64159395988807    4.82276419982752    3.76562874426006
H           5.48021618776693    3.72396700009733    3.81365353090959
H           5.02894199696209    5.26816716287901    4.54553809375444
H           4.51867884346451    6.26974482045878    2.44046298458282
H           5.19327009625490    6.67304819137826    0.14016507026365
H           4.70555842370043    5.47406769566777   -2.63474218559308
H           5.73080801917245    5.91999487583892   -4.65287729324326
H           6.11233136039880    7.36859469689756   -5.61330765794617
H           3.40841586076814    6.86150771160178   -4.25907462740382
H           3.75070028602178    6.63969749131277   -5.97914947408848
H           3.83346987070522    8.25100040051217   -5.26333190241479
H           6.90635147685234   10.36302465388095    1.76054371434077
H           7.38049138251821   11.79137179942994    0.81390067995069
H           9.12805248466679    9.35274852026565    1.45340914074343
H           9.30073980272056   10.96001030492805    2.16245547066985
H           9.65409439512023   10.70622713421673    0.44791425485984
H           8.41571881787177   12.17913022170141   -1.14863323002960
H           7.99701283937834   11.13608453338504   -4.00898455842215
H           9.00945036591712   12.65318760416432   -5.85274303151024
H           9.51766961738159   14.11078211368239   -1.80815504323108
H          11.39996091574210   16.96387101116158   -5.43813719481083
H          10.84218128943352   15.60168600887958   -9.50371705831953
H          12.99349923207977   20.14082350284006  -10.63896302296267
H          13.50025247969423   17.77956515764784   -5.80599118748871
H          12.44940793063374   19.16491434295233   -5.52547003146513
H          15.40670267330042   19.23127265006043   -6.29161201455259
H          13.38617608749145   21.54205847199304   -6.19888189196697
H          15.21164897607360   20.66574451787875   -8.48645538149968
H          13.87545306559542   21.80871123012552   -8.58722955384210
