82
 SCF done       -150.034035869937          0.000576122510
C           2.30255208002759    1.55146905620329   -5.95536929449538
S           2.45577702503629    3.23315034491484   -5.67474913293639
C           2.48811340824721    2.97570213616729   -3.95688864782393
C           2.37840556499094    1.63500939190811   -3.64613765370829
C           2.27331758796093    0.82534558937162   -4.80061251365154
C           2.12214039935339   -0.65966835544812   -4.72193940507353
C           2.59109118776056   -1.18517994089423   -3.36778458417830
F           2.21597377709454   -2.50795392475758   -3.26647835186881
C           1.95548296961889   -0.38330652481162   -2.22941624162833
F           2.34044198252469   -0.92244537042744   -1.02142933937105
C           2.40472063850765    1.07596256712284   -2.26552849707052
C           2.61505480216763    4.06356930747488   -3.04986840898239
S           2.72516122072168    5.74035311702382   -3.56250180936103
C           2.82603330601967    6.11681891857349   -1.84279763303514
N           2.77310964461332    5.04971180466804   -1.09753614003339
N           2.66050198320798    3.92807866161074   -1.75316933347763
C           2.95198044881785    7.44904525276602   -1.36564534371537
C           3.01107385860808    7.72476540127511   -0.03991220150452
C           3.13627701749067    9.04277893035175    0.46792252728358
N           3.20362501247826    9.33778605665389    1.81086179806817
C           3.22653527616879    8.39126747562916    2.89960231979206
C           4.59540303455197    7.73211189115801    3.05066441952624
C           3.31467002065973   10.71865523006570    2.04257427935830
O           3.38117627719243   11.20979814065488    3.15305340942633
C           3.30882176714091   11.30452479635656    0.72116103739716
C           3.19757632669136   10.25030663839187   -0.22225670137805
C           3.19500109944798   10.83604343774178   -1.54401631980558
O           3.12321299646428   10.34450306052043   -2.65392512695920
N           3.31427421395066   12.21612152012935   -1.31284665429470
C           3.29384024711416   13.16234322112292   -2.40186117672738
C           1.92936782275086   13.83164377323298   -2.54672633312572
C           3.37895263211389   12.51173726354544    0.03031779313804
C           3.51431480812524   13.82826660434996    0.53780972046935
C           3.54152658049178   14.10498344893864    1.86503093474522
C           3.68387654907650   15.43239175051821    2.34781968742639
S           3.69115925197118   15.81133941069960    4.06832166165773
C           3.89432241200180   17.48360836116269    3.56413349016809
N           3.93746716279900   17.61231120182438    2.26540884582804
N           3.82177086604248   16.49711493604129    1.60568777175334
C           3.99416271655355   18.55360504402207    4.49577807351707
C           4.18642449097176   19.83138034981672    4.10496110781730
C           4.28167813711711   20.94343399606983    4.98579279530539
S           4.10099443736797   20.76721084122155    6.71239414825128
C           4.34725450254522   22.44429426837158    6.94922369112132
C           4.55574305315558   23.11594042951850    5.78020025887998
C           4.51697955334864   22.26384049598569    4.65308570456548
C           4.76124985169029   22.76062067435325    3.26459904241919
C           4.68466634902946   24.28420684552094    3.17813626300547
F           5.25247692795821   24.67198404253379    1.98354633514114
C           5.43481119599595   24.94303522709839    4.33752841609241
F           5.40255932488322   26.31255552285683    4.18740058857946
C           4.77404502743312   24.59036383863685    5.66678720071360
H           2.24026203627641    1.18684082037303   -6.96145273609283
H           2.67910757716570   -1.14960655104303   -5.52229694588311
H           1.06822634684638   -0.93128810944453   -4.84212482080513
H           3.68379159069626   -1.16806157482427   -3.27275035259987
H           0.86365619582203   -0.48271852426182   -2.27288648529295
H           3.42512297625726    1.13127344826589   -1.87309618356710
H           1.79000396389870    1.68272352066198   -1.59863435029102
H           3.00041006281806    8.23907733004282   -2.10165719173126
H           2.95589070240165    6.90178620347185    0.65707580129819
H           2.44790983011411    7.63873199854449    2.74746882668454
H           2.99353508296575    8.96479594150848    3.80141319762456
H           4.86315698466907    7.17888807189509    2.15331771952313
H           4.58150343809053    7.04625331553100    3.89299315980074
H           5.35423929364980    8.48978474748907    3.23119967403038
H           3.51860884088874   12.58667700294113   -3.30427471071545
H           4.07866318954458   13.90909476394463   -2.25367852419172
H           1.16277217496975   13.07887599856119   -2.71473754939309
H           1.94157763413630   14.51046165105297   -3.39488025614756
H           1.67394578245159   14.39414533616145   -1.65164327857150
H           3.60322689372156   14.64860625127684   -0.15905404991614
H           3.45348327928412   13.31612595306699    2.59890357697954
H           3.91067340642024   18.30085998278112    5.54327421988185
H           4.27749538816281   20.03335307542337    3.04722583455776
H           4.32254883106722   22.84779571019163    7.94175649793384
H           4.04803205398759   22.32391781183694    2.56283610202024
H           5.76306041899195   22.45882827672363    2.93951855721987
H           3.64931418617996   24.64681236890734    3.15531476823691
H           6.49329319505944   24.65573845486102    4.31118958631044
H           3.81221515490911   25.11174622469514    5.71349453423140
H           5.38485466057626   24.95726434172510    6.49319890166819
