108
 SCF done       -213.621954235056          0.000604525673
C          -2.07159952391055    1.33816319600251    9.79150802763567
S          -1.27335687556739    2.84833529219515    9.65568927008780
C          -0.36195386399713    2.27729733833270    8.29208017657892
C          -0.66428191733964    0.97359169143944    7.99839683285134
C          -1.64710410864681    0.43396630443517    8.86655079667854
C          -2.11005612328194   -0.98325421313475    8.76072341019487
C          -1.76699168070190   -1.57424825281717    7.39554165342562
F          -1.98830363820298   -2.93319582946220    7.44388785952413
C          -0.30061072483067   -1.30689488888831    7.04678696468154
F           0.00738809640139   -1.92276919058656    5.85227106113779
C          -0.04210947194411    0.18978702652764    6.88705191939784
C           0.62248017655203    3.11816680227188    7.64495798589127
C           1.87743831227193    3.39412717459400    8.12218641216168
N           2.46461316357027    2.86460170445556    9.29199542846006
O           3.60447038063882    3.20325030329576    9.54681938638314
O           1.80717728772928    2.08942237302914    9.96393490799824
C           2.58133666393802    4.25665544544029    7.19285687463684
C           1.73994314401976    4.55988924584942    6.18429353102953
C           0.46295848526451    3.91661343761616    6.42032440831721
C          -0.70062224454471    4.06645996454099    5.70598186481569
C          -1.84414650519184    3.20040222647419    5.73659321769671
C          -2.64680476893504    3.50857426976165    4.68845308682774
C          -2.09243405865595    4.62718686874410    3.97250151741605
N          -2.79071675456396    5.15925275455265    2.87346097311566
O          -3.95988532811696    4.83843033632359    2.75616546559588
O          -2.20762912264479    5.88679423499599    2.08276658551207
C          -0.93007948605821    5.05207376828209    4.61958735115882
C          -0.19748840901453    6.25558750404086    4.56669126148002
C          -0.15353474150968    7.17137274042239    3.55047748207371
C           0.55274064774110    8.38320160020848    3.67717851739530
N           0.61696288661001    9.32986689198880    2.68586084249074
C           0.04616284072154    9.22500183970734    1.36241656414464
C           0.90190996176276    8.35425750914860    0.44676917688769
C           1.37418613614734   10.45264473147345    3.06949842339425
O           1.57621694224617   11.41371477840451    2.36270051460486
C           1.79066631268400   10.14294242676183    4.42508217990746
C           1.28467458362632    8.87829570706733    4.77103207755585
C           1.70914288956169    8.60169182543097    6.12848588987223
O           1.51101115503665    7.65553024664455    6.86320009084595
N           2.46245496382775    9.73418015490301    6.50767111953139
C           3.02893950685429    9.80614730216243    7.83446103104525
C           4.46303123612088    9.28298783329567    7.87337906658307
C           2.51324737881316   10.66233513392570    5.50294069620992
C           3.10746724828734   11.95163277922022    5.46873676608709
C           4.00567960425039   12.50370937491457    6.31321195215180
C           4.54345519848094   13.82483081195107    6.11869429552046
C           3.81788202333817   14.96007876770509    5.69273591154680
C           2.33676190977683   15.01383345521897    5.71806919328150
O           1.57079820913764   14.16868606733191    6.07271651218476
S           1.79905791657848   16.64758672525732    5.22797364703707
C           3.47719882270391   17.27199696815768    5.10545160356793
O           3.70534684744467   18.42453649243242    4.89276917712305
C           4.43052909333328   16.17139526545307    5.37241957097918
C           5.83300403576857   16.36131434880875    5.45071946750168
C           6.51335822034861   15.28151594410376    6.04306924515130
C           5.90101069512690   14.07770530273451    6.35735785606948
C           6.94668826286301   13.17632871851721    6.89374612578351
O           6.86073264960270   12.04904321776437    7.27428651515866
O           8.12514767630407   13.87683622797042    6.88845567044310
C           7.94756891685567   15.14277036449790    6.37792589806365
O           8.84556457272729   15.91797207472424    6.25479910968910
C           6.57750607109554   17.51139373405578    5.03082510357674
C           6.30231483892673   18.24876942583796    3.93222648492659
C           7.03233491568507   19.36239143454488    3.43505886825314
S           6.39702937442592   20.11749119041079    1.99356445532240
C           7.62677315704433   21.29602810225554    2.01420143130967
C           8.49626548912705   21.12963115349495    3.05647062093443
C           8.17269902416970   20.02238658952787    3.87178289639698
C           8.98212427276341   19.66610327038535    5.07587846113298
C          10.27659516471131   20.47485592014353    5.19647757728740
F          10.68390551538697   20.41665901729996    6.51096896753487
C          10.07688890707304   21.93533018150347    4.79023054602307
F          11.25777142453923   22.62456117996168    4.95382022506999
C           9.67024429313402   22.01441305360591    3.32268584465803
H          -2.80884336410232    1.19831274470324   10.55656510336053
H          -3.18506825280836   -1.05556664280059    8.93583821895854
H          -1.61210160127957   -1.58980363116994    9.52414562108091
H          -2.41685122978367   -1.18761889569958    6.59972826811993
H           0.35010364079827   -1.76029706907586    7.80418041221933
H          -0.46333291989820    0.50205872309905    5.92428165493068
H           1.03347108788407    0.37286167755851    6.84263231680377
H           3.60265075727328    4.55618857548479    7.32465565597673
H           1.98410126390632    5.12377628674522    5.30696208874635
H          -1.99419261156958    2.40418308162922    6.43596717030713
H          -3.56129128558467    3.02625839212089    4.39787673109496
H           0.36191430924794    6.48008300216564    5.46558499797216
H          -0.66449456675510    6.97593356366346    2.62081739137554
H           0.00496690627210   10.24430918989477    0.96938198000257
H          -0.96907552169409    8.82773878781451    1.43166954268729
H           1.90561803201036    8.76552959081936    0.36823834443619
H           0.45913998083639    8.32502407859921   -0.54427234986089
H           0.96761263649754    7.33759108548158    0.82658156430646
H           2.40237902269441    9.16941575114943    8.46658870962372
H           2.96266178461431   10.83464107522430    8.19476679107519
H           4.48054680210361    8.23957440133682    7.56858316071173
H           4.84779227366735    9.35201442158149    8.88670587976899
H           5.11998393000413    9.84734762122525    7.21604736450126
H           2.79564065134981   12.51430243030558    4.59731120147056
H           4.46824986598379   11.93553112157724    7.10492942560732
H           7.47322956961535   17.69026868021728    5.60119456181688
H           5.45203372065993   17.97715237000376    3.32104809796152
H           7.65340280008735   22.05848158392670    1.26089696241960
H           9.23885163141727   18.60398254235225    5.07099899135132
H           8.39107925302726   19.85866939032525    5.97786699954964
H          11.09254874002355   20.03998854156953    4.60578005020461
H           9.34417805228605   22.41606768036621    5.45024428399432
H          10.52444712026056   21.69778066533695    2.71526876652028
H           9.44324936548195   23.04770441304863    3.05567213756834
