108
 SCF done       -198.194644773353          0.000859023112
C           3.26903206758627    0.94239496670617   -6.27092382861950
S           1.80972372068938    1.84780211099785   -6.49531192949602
C           2.41081164633875    3.03958066376343   -5.37427111276410
C           3.67371653732112    2.63444392394510   -4.93285257355481
N           4.10480578102717    1.45988404546989   -5.45235756256530
C           4.60991536607329    3.31430565824099   -4.01232856854493
O           4.67925778004616    4.50911113880438   -3.82330488022908
O           5.40522754551041    2.43267823979819   -3.41583730906008
C           6.38001850149686    2.96629732763157   -2.53261669383725
C           1.54037328677602    4.12176178575634   -5.05521657390074
C           1.80795550272758    5.08122997997432   -4.13553307320987
C           0.99065791185030    6.16167222689469   -3.70611941187962
C          -0.02662345270772    6.91426042786586   -4.30705845386583
N          -0.61863487085971    6.80085947402424   -5.56990863835701
O          -0.44906179176840    5.78889514334007   -6.23479659958645
O          -1.28678303634547    7.75029170361717   -5.95550787083703
C          -0.35675195609388    8.02031954827479   -3.45260442714275
C           0.45640229971416    7.99733469591059   -2.36480488995181
C           1.32220715627556    6.86160542076432   -2.46560983692560
C           2.25371140905231    6.44463534029633   -1.51285429244639
C           2.54969208146511    5.11481027775772   -1.13979629658615
C           3.33813262469258    5.12920916738945   -0.01019262203176
C           3.62459557650441    6.46912421059432    0.33928123514410
N           4.45263355375745    6.82707204334561    1.40676321813463
O           4.62328330527184    8.01537326429907    1.64899363227467
O           4.95992130968212    5.92419902994989    2.05508434729829
C           3.00707716048464    7.32500342449984   -0.60001258551576
C           3.22008337262281    8.69018557626309   -0.76736162482019
C           2.93440283698856    9.35726102502244   -1.94441692556236
C           2.88554608669034   10.73733145503838   -2.12420037850465
C           2.92357236688784   11.72117328768164   -1.12194524022678
C           2.55904270876508   12.95785606123390   -1.65081189119173
O           2.53591132163717   14.01850693763277   -0.84444392775675
C           1.95156242245876   15.25426022896968   -1.20327880431842
C           2.30737800426544   12.80123827747740   -3.05839383792819
C           2.45438769847227   11.39029902625340   -3.35373266479941
C           2.07446844595689   10.74490889048932   -4.51505687597463
C           2.53810242170200    9.50946383116828   -5.04103749751846
C           1.77110307097459    9.20192500516687   -6.13997839514942
O           1.82834412717819    8.18723971359414   -6.98021051453603
C           2.83353452521562    7.21001849749634   -6.79710900147800
C           0.73983960592259   10.23490928467258   -6.30372862028386
C           0.95146775435136   11.17685887100834   -5.37574539063420
C           2.20052178422588   13.83145714740376   -3.99660239703124
C           2.40143730220502   13.73783181141629   -5.35796440209296
C           2.26444112541368   14.84094456957324   -6.21254733918002
C           1.88389863564636   16.14276523738745   -5.88503992670318
C           1.91028813140633   16.94756822109712   -7.03605969472663
C           2.31319150172772   16.06260506296051   -8.14756366679488
C           2.52519432996376   14.81868201484277   -7.64254880996747
C           2.46642138963222   16.43052731059313   -9.48832668523254
N           2.60067134813089   16.70933101584907  -10.59483931002501
C           1.64346592708022   18.30773842736668   -7.10742287057012
C           1.64839028069354   19.14083599880517   -8.24662064149920
C           1.34915677689847   20.44065939958881   -7.86533601061602
C           1.14562106276677   20.44095794375386   -6.42730933390054
C           1.31535296741463   19.17556076108799   -5.95848432923396
C           1.21994728934942   18.79122593918348   -4.61910672525783
N           1.14486065706203   18.49149292163532   -3.51080447308674
C           1.25471058112094   21.61031940371064   -8.65563170000051
C           1.42804890430595   21.66228482810175  -10.00321847795273
C           1.33494491935821   22.88119822191633  -10.71787228810136
S           1.54418827708665   22.92442716885145  -12.47698466079047
C           1.29515138200792   24.63488378982663  -12.43430680137803
C           1.07785554530949   25.03119944412537  -11.11268958265957
N           1.10522109815730   24.04800194785584  -10.20211848402430
C           0.83484303804037   26.41919229536648  -10.67000005180175
O           0.77608327775833   27.38283930228766  -11.39767983891630
O           0.68825760564146   26.48294341994671   -9.34689054419529
C           0.45341369051600   27.77579253092960   -8.81146219732412
C           1.32038334548249   25.46404930733863  -13.60211228270268
C           1.52692677187891   25.01033016948821  -14.83775955361802
H           3.43693849657165    0.02028748991351   -6.79046758748152
H           6.89644937836442    2.11310096279289   -2.10176732653551
H           5.90162299776377    3.56196211227324   -1.75147698643021
H           7.07979284877301    3.60270146882893   -3.07803889119866
H           0.59982508382130    4.12578778795917   -5.58575213932052
H           2.75653111322857    5.03385362722922   -3.62236483872074
H          -1.13347904681789    8.72573568407711   -3.67678141432014
H           0.41664921105533    8.65775526504823   -1.52034153681638
H           2.11755775120654    4.23935989467514   -1.58586236312347
H           3.68663940549651    4.27785237826267    0.54473773532054
H           3.68944072378106    9.21648364832440    0.05342092535500
H           2.69386277862196    8.75403387108443   -2.80475351837316
H           3.16181097260916   11.55892459556595   -0.08847011200637
H           1.83606774454499   15.79894483696277   -0.26663241873175
H           0.96999443657603   15.12178005208258   -1.66310534351991
H           2.60555839180339   15.83233873148163   -1.86194223905079
H           3.41726979103772    8.98865491719868   -4.71626712661891
H           2.59912971507537    6.40489752406847   -7.49034374628592
H           2.83651651931933    6.82312269410010   -5.77522136118005
H           3.81826828057909    7.62512600206930   -7.02786754055407
H          -0.03818319025179   10.17194457107538   -7.03818569669146
H           0.34813538144751   12.04086974192887   -5.17720776151181
H           2.01492341908218   14.82461985373133   -3.62130880953425
H           2.71789639603763   12.80174672104276   -5.79566412162858
H           1.61463807635318   16.49768100068114   -4.91153611730760
H           2.83249857331977   13.94831926493466   -8.19276573942253
H           1.85389183447047   18.80426343038699   -9.24317188961951
H           0.90304168634822   21.31144266755641   -5.84606591856897
H           1.03120797566527   22.53766806449099   -8.14508093492790
H           1.64549620433192   20.77344119144434  -10.57653582110325
H           0.35476402315406   27.64502459352924   -7.73715213328860
H          -0.45950351999533   28.20254103421936   -9.23268976874264
H           1.28834264358124   28.44099691725281   -9.04271480882821
H           1.15342586573905   26.51464085835100  -13.40919333350842
H           1.69049993644022   23.96302303166080  -15.03754055590774
H           1.53482536715232   25.67387669304886  -15.68386649282855
