85
 SCF done       -172.831023918426          0.000807602700
C           6.94309909919733    0.26129114814001   -3.86429666067962
S           5.48253717975192    0.88845666411610   -3.16123299761267
C           5.71654045028203    2.34191039062438   -4.07943280679994
C           6.88594997434439    2.22870779224789   -4.81823453345278
N           7.53779948071463    1.05075296626638   -4.67329090561115
C           7.51724688288516    3.30879072357420   -5.60571172918993
O           7.25377375453062    4.48413037011239   -5.49362264713789
O           8.43980877164513    2.82735436738837   -6.43084011365618
C           9.14053504466178    3.78287177982096   -7.21175113441272
C           4.75965442372347    3.40580328998069   -4.00927254598796
C           4.42807371058983    4.19612036740840   -5.04684333085645
C           3.41319699820299    5.20701758336316   -4.96600762961253
C           2.34899707720393    5.32026595531176   -5.84137041263835
N           2.09904949367085    4.53135800521012   -6.97612780933068
O           2.86559386425828    3.61581687385449   -7.23202343253457
O           1.12211492440531    4.81452667652826   -7.64922680332660
C           1.42063933526740    6.31310274799547   -5.35720382843680
C           1.92881477696167    6.84943132602259   -4.22738221745561
C           3.23379732670061    6.27165218580608   -3.96987273119573
C           4.17970684538300    6.73021014881508   -3.08037777172260
C           5.41422294742986    6.09065460466385   -2.72033480278152
C           5.82475946587183    6.57848488269246   -1.52158196521488
C           4.92529694960620    7.61481085375020   -1.09950252687305
N           5.12348584757651    8.35062067615251    0.07461513438364
O           4.34661926061537    9.25782047510138    0.34567703470981
O           6.06693392507993    8.03366746368374    0.78165899672317
C           3.97772400781938    7.83119022390797   -2.10238950286186
C           3.13442955640788    8.94874199834276   -2.19709431431148
C           2.73329987352807    9.53205586633922   -3.37307615950363
C           1.91876061260456   10.66600891889287   -3.43727295037414
S           1.15813563946149   11.37409594502248   -2.01977699722916
C           0.35632430835976   12.63079737868942   -2.92697654333094
C           0.68066198640054   12.50945130362249   -4.28545216198260
C           1.54069996640407   11.41159241771640   -4.55649989612540
N           1.78198871947115   11.37814184738095   -5.88883431442309
C           1.10186730954646   12.42692706079688   -6.47654678209404
C           1.15910861263707   12.66766753489617   -7.85694482244220
N           1.20693765276577   12.87328106809642   -8.98425453910457
C           0.41338651182960   13.14306629626615   -5.51864047948147
C          -0.49466469176640   13.57492393570615   -2.33119860105370
C          -0.80993049983855   13.58871461241246   -1.00641493409019
C          -1.68530170426895   14.50510005813906   -0.39029349953023
S          -2.46411899623959   15.80933836660942   -1.22871433224617
C          -3.28449126200731   16.31883960289325    0.21699052688744
C          -4.20422317230889   17.47035879815006    0.26608917084787
O          -4.75961626626997   17.79427048962656    1.27927624009018
O          -4.39279206790904   18.14150876031051   -0.88081365721718
C          -2.97082782545235   15.52075527511061    1.28937971887219
C          -2.07023107918073   14.50012304604513    0.95493884722106
O          -1.54582196164080   13.53287729754151    1.75904530591142
C          -1.90293070331803   13.41026734225106    3.03325905733912
S          -1.13152804337028   12.11673514653508    3.94189728932400
C          -2.07293491584460   12.61331115468128    5.32665975547761
C          -2.86599578498075   13.68839395727375    4.97788080055519
N          -2.74776785930206   14.10972418492133    3.69060130052747
C          -3.81205556950648   14.40390905722754    5.85617610893989
O          -4.02451646752554   14.13822502411671    7.01539082403052
O          -4.40686988709552   15.39289818965659    5.19250414468108
C          -5.34829887280079   16.16677961827055    5.92020549713563
C          -1.98971830643984   11.96105526743021    6.60122045058937
C          -1.19296080845228   10.92755457093300    6.86133798632253
H           7.29528601492853   -0.71977268759086   -3.61616184544200
H           9.84580970884618    3.21954178720249   -7.81663699517492
H           9.66535003458281    4.49044559389929   -6.56635432665452
H           8.44610075247801    4.33699493252714   -7.84724468788587
H           4.23534026732426    3.50632604331438   -3.06681872905077
H           4.83329898865575    3.99450848493524   -6.02836417934565
H           0.48054781315055    6.52313224506989   -5.82996579400592
H           1.44408101963410    7.56571763941734   -3.59569703506224
H           5.90995872284394    5.34118921625769   -3.30247544300411
H           6.68781450138125    6.28293059920698   -0.95538955926353
H           2.90518591216635    9.46110891006871   -1.27047099800733
H           3.09041978767801    9.13741614673174   -4.31599322353146
H           2.35224815608554   10.71431224308049   -6.38618425869214
H          -0.19648990836082   14.00543934047815   -5.69616998445755
H          -0.92700648327227   14.31701477874812   -2.99043888115874
H          -0.38359451371314   12.84198074278982   -0.34888367594232
H          -3.88993964636809   17.78462054373839   -1.62521614544764
H          -3.38175557250345   15.67065310663281    2.27159355863631
H          -4.87304632387829   16.62326057228443    6.79087077169773
H          -6.17383016571689   15.53827214003071    6.26070193607231
H          -5.70378247343684   16.92858248049119    5.23133589975986
H          -2.63886727607472   12.38181006632241    7.35633610912588
H          -0.54534211196823   10.50904882545746    6.10748546443807
H          -1.16539302645758   10.47122431467880    7.83447365494605
