110
 SCF done       -211.731971640647          0.000554094084
C           5.90507188607251    1.42912418618862   -0.13973951694248
S           7.00960283725403    2.60288258055784   -0.77746499868781
C           5.64170740757678    3.50053024540327   -1.37141123507895
C           4.46948157356298    2.81846386328137   -1.03266670590444
N           4.66538634443620    1.67466130958069   -0.34413014220463
C           3.06636978403541    3.18569697527455   -1.33180510423824
O           2.12225932194530    2.72471450187552   -0.75186567978498
O           2.97148426700726    4.08526003472470   -2.33128560405292
C           1.66063051799102    4.47404289398955   -2.73083858429083
C           5.77630697272336    4.72402695224086   -2.07125759479387
C           6.96818241296629    5.28427652081751   -2.40939649137204
C           7.10638295574794    6.48523396546662   -3.14487616244102
C           8.17311456266168    7.37658354069301   -3.10785124580163
N           9.39908104369237    7.23421690561082   -2.43294248824563
O           9.60293920171125    6.21068021477606   -1.79972965949097
O          10.19492606002268    8.15133415054308   -2.52584055069578
C           7.83210665632933    8.55715323883736   -3.85025196098543
C           6.56074189538402    8.43020797599916   -4.31820054791687
C           6.06836742031827    7.12961104132418   -3.97057530555728
C           4.94132353825246    6.51768364041687   -4.48922356569030
C           4.82161220523213    5.13721127333187   -4.85079785076685
C           3.67105236854979    4.96255629096820   -5.55965512340026
C           2.97424475914490    6.20838739346227   -5.61756743418055
N           1.67271778471456    6.33939990312912   -6.13674909810538
O           1.22181346669516    5.39003057047559   -6.75303127986291
O           1.06363959296460    7.37348680358539   -5.91963468911686
C           3.72722461926168    7.19470831519991   -4.97766649290289
C           3.36264076726474    8.53546134480780   -4.76575122672125
C           3.78836429851484    9.30047935732396   -3.71059816462968
C           3.51479972073894   10.67360229234004   -3.60886147129625
N           3.76908171085618   11.43855731260092   -2.50059200423758
C           4.35720996680864   10.99409564103334   -1.25858315666117
C           5.87973270357491   10.93053870632931   -1.35301514669584
C           3.44114569419774   12.79182709640071   -2.70266693244064
O           3.51608838296359   13.63944189747225   -1.84378201122106
C           2.98353058874748   12.84349548827444   -4.08272567295273
C           3.00413893077512   11.54036880698080   -4.59564917641906
C           2.55957417427861   11.59058559758570   -5.97818422781822
O           2.44757058973518   10.73293364732616   -6.82404860182159
N           2.28496108537669   12.95289067765968   -6.20093249478630
C           1.75554284292675   13.41043264600211   -7.46458443873568
C           0.26239297953352   13.71117516358438   -7.37145054527820
C           2.56028578311858   13.72192398406828   -5.09937844431079
C           2.50929362786496   15.12696571407108   -5.08247251790831
C           2.99506581993890   15.86141546563894   -4.03388286828814
C           3.10559347821510   17.26732285338061   -4.02576658286368
C           4.16626345487301   17.96886497431128   -3.45722878816326
N           5.26900781011296   17.44350875606527   -2.75020663461000
O           5.47142574915620   16.24249045925407   -2.79059190219021
O           5.96684412505993   18.24093980331719   -2.15119906656241
C           4.09375212428062   19.34465241845410   -3.84624662251867
C           3.00557608724945   19.51767725796288   -4.64147290405390
C           2.27404369827028   18.28294942032650   -4.71294379613378
C           0.98132688146481   18.09622197673285   -5.15122153255680
C           0.17940883709056   16.91026345389468   -4.93829420538498
C          -0.91470933311102   16.96409842466896   -5.72924452633544
C          -0.86812087855196   18.19855237697713   -6.47651138231403
N          -1.86973560842769   18.58246240739780   -7.38686202649836
O          -2.73594028459530   17.76361552754526   -7.63920528715992
O          -1.81441005399208   19.70034926023412   -7.87136557122815
C           0.21689939141190   18.95447783355432   -6.07626402536713
C           0.50706854479952   20.27193405424146   -6.55899125223661
C           0.73208804046686   21.34503842000192   -5.76997302587463
C           0.99019697243968   22.63603032965941   -6.31117176022502
S           1.09283171997068   24.05624006593151   -5.26079684040727
C           1.42170094108953   25.02298761116480   -6.65551355299356
C           1.42779234701834   24.20458336935577   -7.78688509853555
N           1.18932995317416   22.90505997932457   -7.55962465727275
C           1.67616314568677   24.66561065291749   -9.17016331849435
O           1.88369584435217   25.81204827734537   -9.49187483807284
O           1.64473877488532   23.64811029451853  -10.02601947815037
C           1.85841408079867   23.97605346559170  -11.39028882242024
C           1.64554808354698   26.43689396292157   -6.59829942306085
C           1.62384017645670   27.15316237451949   -5.47508271927158
H           6.26193106623012    0.56512635772381    0.38467793485144
H           1.63402216451098    5.56253009588754   -2.77717893344590
H           0.92807411234223    4.10615689860441   -2.01079311424649
H           1.45359738700559    4.05304842565412   -3.71535855827840
H           4.84974620576894    5.21563244175355   -2.32650697068551
H           7.88744439453604    4.83955101847815   -2.04670870715882
H           8.50330336305378    9.38312855805561   -3.99142812506579
H           6.05057881473176    9.11849864783433   -4.96347023835015
H           5.58096086979636    4.39922173659123   -4.68283239467329
H           3.31235259208192    4.05648084516268   -6.00989229988782
H           2.65456417067759    8.95799887208064   -5.47085833332456
H           4.34123706170309    8.83427623351620   -2.90703232204247
H           3.93643466518569   10.02362242524996   -0.98369857457164
H           4.07002600537704   11.73093451009502   -0.50371419088177
H           6.19883690744982   10.23841276567445   -2.12992797447190
H           6.29292594771779   10.60471237534468   -0.40289441245804
H           6.27665881168603   11.91625685669673   -1.58208969993466
H           1.92420140056630   12.59604017607456   -8.17422630862415
H           2.31239951221114   14.29005353062570   -7.79911981141956
H          -0.27959318484405   12.81583779088229   -7.07759733846760
H          -0.10767671754315   14.03607231312488   -8.33943608589757
H           0.06563180925189   14.49390596553949   -6.64234544710312
H           2.15871253076381   15.63227533403463   -5.97109914887846
H           3.45891055001698   15.33935084059049   -3.20368336075482
H           4.82158793526426   20.08058680341307   -3.56102978134868
H           2.70775800464044   20.43571583983787   -5.10276785995851
H           0.41192797274971   16.14796772364634   -4.22163276465281
H          -1.72203205976800   16.26082642948616   -5.80407782594606
H           0.42136777880477   20.44291321580183   -7.62517480585902
H           0.66964717855394   21.27494848676560   -4.69215659280544
H           1.76395240187273   23.04518525009193  -11.94281332572931
H           2.85332619186763   24.40583506239361  -11.52691051615906
H           1.11518332038815   24.70128262033608  -11.72822320241106
H           1.83687253176398   26.89826685987243   -7.55723268255833
H           1.43146090613059   26.69947780754153   -4.51533301133624
H           1.79770217173409   28.21421269393817   -5.48462936109701
