99
 SCF done       -216.705050346209          0.000542853646
C          -0.39523660837125    1.48927417872816    1.30798045226391
C          -0.48270517217237    0.69193976640903    0.17480504470171
C          -0.55975754599739    1.25892122745331   -1.19235643408968
O          -0.55627835328247    2.41200797912221   -1.49508682303662
S          -0.66731117386641   -0.08739811047667   -2.36578655132747
C          -0.63444573390124   -1.35147905962798   -1.08120394099336
O          -0.73086429567915   -2.51498992666824   -1.32918965492273
C          -0.49932648441597   -0.70032239653878    0.23775711814765
C          -0.43483769398645   -1.40723499369630    1.46152010545522
C          -0.33099018419799   -0.58354501450710    2.59947736026686
C          -0.31166324306582    0.80787783209630    2.50927611701947
C          -0.14223672369853    1.35134995050390    3.88173966013454
O          -0.09949239514766    2.47902638096474    4.25426447063602
O          -0.02648073510480    0.27223254143343    4.72091371755205
C          -0.11634846036346   -0.91692281601018    4.03272676226643
O          -0.00533194941753   -1.96792611209022    4.58154744096493
C          -0.43474305617514   -2.84487282104865    1.49472065510870
C          -1.02773719792448   -3.59908092469663    2.44643503008718
C          -0.99630442607284   -5.02286247910267    2.46646988614847
C          -0.26782330621230   -5.88589908217953    1.67959099532173
C          -0.51186927391900   -7.22539128608383    2.10682292673693
C          -1.49738393933456   -7.13671991531998    3.20130870779314
C          -1.76874959428044   -5.82301673459055    3.40959379055641
C          -2.13275338757972   -8.19916460224369    3.85811669824474
N          -2.71984175171823   -9.03000102957038    4.39022607204521
C           0.07535704864704   -8.37492054266059    1.62795805013899
C          -0.07345636958641   -9.69463781006941    2.13260902246407
C           0.65595556772200  -10.57012960977838    1.34537516572906
C           1.30611222647488   -9.78903653886073    0.30154660638114
C           0.98809400957837   -8.47981994183895    0.47529430458792
C           1.46395090860548   -7.43280845408500   -0.32330810373062
N           1.88586087819910   -6.59918370204000   -0.99109923504860
C           0.73564421510081  -11.96313393236023    1.58779307082452
N           1.17915210265686  -12.93202595072369    0.72717871819823
C           1.61984969939556  -12.77701526321643   -0.63329918367313
C           1.08987165699432  -14.22279146825048    1.29317356297710
O           1.39799205950925  -15.23167701472024    0.69928197813502
C           0.57281630580264  -13.99305442848192    2.62654930683716
C           0.35601314179609  -12.61126345229855    2.77477168040080
C          -0.11958302841596  -12.37160825661995    4.12699643115678
O          -0.39645280794340  -11.36093892749201    4.73011745700482
N          -0.19144607205937  -13.65927352661728    4.69379593537572
C          -0.64738152578598  -13.85891425674630    6.04283107543540
C           0.21979811172871  -14.63568461282828    3.82479588553532
C           0.24736006692066  -16.00416191244047    4.15821424865968
C           0.70733836146617  -16.96121866232182    3.30108317724608
C           0.74431019530530  -18.34977960719084    3.58602106949443
C           1.30260140562446  -19.23564555834092    2.62208769063442
C           1.34305253150684  -20.65735992986341    2.82222618801902
N           1.80647281092384  -21.46840988763515    1.84922913660015
C           2.29756827367363  -20.93009333446581    0.76550826019674
C           2.33233992963581  -19.50289035849259    0.59854310382519
N           1.81664232433131  -18.71116539948149    1.50231234728668
C           2.90669904261652  -18.94354917448336   -0.57120974998096
N           3.38051781210405  -18.53750144881908   -1.53117704514510
C           2.78676603109409  -21.78039922041681   -0.25990266681222
N           3.19001442497234  -22.44721533335735   -1.09860545415092
C           0.86944787487696  -21.24200416021457    4.00529124574154
C           0.34574016999537  -20.38460387094774    4.97681577781473
C           0.26979903269528  -18.95445337656508    4.77360277168787
N          -0.27123693943801  -18.34837308809587    5.83337835001230
S          -0.63075146957097  -19.44444039210090    6.94760214761281
N          -0.11966851660847  -20.74759892464195    6.17719874940638
C           0.94524725401905  -22.68109339441476    4.20332048311923
C          -0.16410125691464  -23.47520639037351    4.51528511449995
C          -1.54436148947066  -22.94955875515489    4.57103759074173
O          -1.92861230403441  -21.85324194563288    4.29100868983303
S          -2.64419833700853  -24.26502259637553    5.08102762613270
C          -1.33227121999442  -25.49598743046365    5.10453156881082
O          -1.52904736106643  -26.63649005624207    5.39363794682034
C          -0.05752800917056  -24.85032787805610    4.72609633300876
C           1.15701451863620  -25.55192969231204    4.60403295805449
C           2.25146391943412  -24.75426882931420    4.24194229785288
C           2.14660556880407  -23.37703797585603    4.06599396090742
C           3.50366501485662  -22.85785081309375    3.76605878684760
O           3.89247070252754  -21.73553064319044    3.66073371083803
O           4.33128004299325  -23.94247502724788    3.66766616436296
C           3.66055241748281  -25.11793647862099    3.92860153214746
O           4.19872142460137  -26.17628751425300    3.87319790987807
C           1.23941963809890  -26.98758220843027    4.82409958773498
C           2.21194991273003  -27.58861935582096    5.49758752424234
H          -0.37984608941778    2.56527406327278    1.24737658085423
H           0.02484652420729   -3.33319880276687    0.64722661789425
H          -1.59278094288859   -3.12940346824557    3.23897796913658
H           0.40863949664314   -5.61778543704008    0.89276431070157
H          -2.44656452683695   -5.41766012611974    4.13787046581235
H          -0.65111439073273   -9.95860605741093    2.99649928178792
H           1.96401622699165  -10.16733817468101   -0.45597422590766
H           0.91075658407896  -12.17945173337787   -1.20681242462160
H           1.67887634068697  -13.77953830887426   -1.05996510811373
H           2.61284266716877  -12.32543326249528   -0.67795797850266
H          -0.89598851666544  -12.87466420727601    6.44039627137102
H           0.13405917780252  -14.30982071252035    6.65680792166574
H          -1.53673842138649  -14.49063952288999    6.06384798228138
H          -0.10961316858168  -16.29717634891993    5.13469821775936
H           1.08225095201333  -16.68078599320549    2.32476232172058
H           0.40291060635504  -27.56129661959208    4.44946026814019
H           3.02685405822989  -27.04745571044570    5.94622489775444
H           2.20761418119611  -28.65471381531597    5.63969616046466
