100
 SCF done       -203.547676323034          0.000789038381
C           5.18623371064505   -2.37229896974908    4.95187712541936
C           4.24661963782589   -3.20650904644739    5.54396839022884
C           4.09239025334200   -3.26790502744550    7.01610760669491
O           4.76048567136869   -2.71350163312160    7.83323158677498
S           2.70591041223184   -4.32636682270082    7.40237343752740
C           2.35484306639623   -4.67518279089430    5.66871071148332
O           1.39603135792509   -5.30758004650691    5.34274834005433
C           3.37112423644378   -4.01922450189283    4.81845609890431
C           3.41634941537644   -4.07365972573657    3.40397868171078
C           4.32929897227583   -3.17004163156235    2.82500001964651
C           5.18089450113389   -2.35989315783458    3.56849206745631
C           5.99843772174895   -1.56941498010912    2.61059485532569
O           6.84583760492307   -0.76250328664618    2.81648951350361
O           5.59824372599611   -1.94043160184556    1.34946301073585
C           4.60852998930647   -2.89416131697749    1.39592049512350
O           4.11877983435505   -3.35595847785061    0.41152945186154
C           2.65226745994372   -4.92535180043732    2.53684412919909
C           2.23082513097862   -6.17946306527609    2.80902845384830
C           1.53870805111940   -7.00131224921887    1.87600988016996
S           1.04049174780439   -8.60094522418324    2.34403658030655
C           0.34479210474548   -8.91414821866125    0.78844683948745
C           0.50488831165949   -7.79696178096250   -0.04766610768255
C           1.17394812844804   -6.73346907089093    0.57037333627398
C           0.06210024485614   -7.71087429081850   -1.37876511116511
N          -0.28168097223732   -7.60348885616783   -2.46852592773892
C          -0.24730496573891  -10.17356149667448    0.54009744082010
C          -0.80401389728073  -10.55433713767476   -0.64356346052163
C          -1.35239941199111  -11.83912039000138   -0.85008054011612
N          -1.88326097145385  -12.25251868513865   -2.04732737423498
C          -1.93831691033406  -11.49440192362854   -3.27571079064940
C          -0.59136443128724  -11.47265611324432   -3.99288082099061
C          -2.33986940412664  -13.57961173981395   -1.99043003403536
O          -2.84157336581732  -14.15861163034901   -2.93257506393089
C          -2.07105304733826  -13.99410107412720   -0.62790893603472
C          -1.47019033632232  -12.90975845669837    0.04418495690454
C          -1.21009141905853  -13.31822171022547    1.41010321986083
O          -0.71008501842756  -12.73146916752159    2.34914603585806
N          -1.68602175791380  -14.63530361987651    1.47511682055195
C          -1.56777322263499  -15.41560526315555    2.68499940530084
C          -0.37699330683800  -16.36903987368001    2.63429270319694
C          -2.19253252834029  -15.06416903790612    0.26962442663192
C          -2.71348006512139  -16.35420877864969    0.04926525584417
C          -3.17121283293878  -16.76584208814203   -1.17031938070410
C          -3.66585201146160  -18.06253891760021   -1.43410776398849
C          -3.80499699664668  -19.13926149483531   -0.58067010132400
C          -4.31537584677962  -20.25198709657578   -1.30565187644282
C          -4.50425386113027  -19.78386413465007   -2.69641283607295
C          -4.11747412176379  -18.48641828587776   -2.75725140571120
C          -5.01663170633192  -20.52545847882343   -3.76805841562362
N          -5.45154825456066  -21.09927252186114   -4.66280006764797
C          -4.56341832007911  -21.51475459342196   -0.82605299073905
C          -5.01211284048035  -22.65303239840334   -1.57699511909066
C          -5.12959942501041  -23.71869215814366   -0.73260018023891
C          -4.75601875699738  -23.29566514176246    0.60323862632763
C          -4.39992181216268  -21.98179599538863    0.55547102913213
C          -3.94896708708102  -21.22875499976339    1.64380182892579
N          -3.56973953322919  -20.62338293395949    2.54420079456576
C          -5.54059309708295  -25.05989328411292   -1.09644698660144
C          -6.58185680797591  -25.75089310675874   -0.45870328179712
C          -7.42894980690935  -25.13414861591602    0.58278448001613
O          -7.37925014014478  -24.01800587652260    1.00424741159765
S          -8.63706815759175  -26.33668648568774    1.13802221295526
C          -8.06157928414234  -27.59719457994218   -0.00707987129570
O          -8.54364361412649  -28.68775835328555   -0.05566345422013
C          -6.94956622499081  -27.04923187820378   -0.81293833545838
C          -6.30996815042427  -27.77208092349121   -1.83659203272512
C          -5.29282585718403  -27.06423684871876   -2.49181605515381
C          -4.92856113727314  -25.76832884252681   -2.13531278534011
C          -3.79562195217241  -25.36497447232696   -3.00757913765821
O          -3.12283892958105  -24.38373721360053   -2.99487545603373
O          -3.59125095949432  -26.39415361551517   -3.89255045338205
C          -4.45349679209108  -27.44017623929440   -3.66295498951940
O          -4.46051031977885  -28.41518101394943   -4.34392334768974
C          -6.70163194062292  -29.13063056974316   -2.18015333164544
C          -5.84924093671471  -30.11743782815356   -2.42403993430019
H           5.85220532935653   -1.76338578792020    5.54110639495866
H           2.50861402013968   -4.52986703712278    1.54161863403697
H           2.43252647412948   -6.63573013861215    3.76655923155217
H           1.38743118737172   -5.80884690070580    0.06476995708872
H          -0.23449969789437  -10.87394904708360    1.36611031200474
H          -0.82806379591845   -9.86463069927516   -1.47259920220466
H          -2.27969147746459  -10.47791993229037   -3.06417519508304
H          -2.68062582166059  -11.99339691143314   -3.90464555678251
H           0.17311090045968  -11.00556505070395   -3.37629173971718
H          -0.68107326725396  -10.90959094566554   -4.91705042438385
H          -0.27792964379806  -12.48643525630395   -4.23029068298735
H          -2.49770082225903  -15.96337192161124    2.85792669509543
H          -1.42695879260283  -14.69591011134493    3.49607846247011
H          -0.46874831462191  -17.06747605003485    1.80559896961917
H          -0.32204209508512  -16.93380139648522    3.56040655410189
H           0.54580525373907  -15.80673874512832    2.51362470609080
H          -2.73615735838885  -17.03912168694339    0.88407313904183
H          -3.14930752026273  -16.07407999801552   -2.00230569197666
H          -3.56405286060555  -19.16533259451547    0.46298502216350
H          -4.12939273350542  -17.84903113754066   -3.62209752588645
H          -5.23493478636925  -22.64352736185254   -2.62499297458642
H          -4.73603809487851  -23.93090522532871    1.46873802662019
H          -7.76578760177179  -29.32185016196363   -2.16596063434516
H          -4.78205074055833  -29.98614645627698   -2.37915617972884
H          -6.20172648357797  -31.10661478800635   -2.65634380154369
