104
 SCF done       -202.345648163484          0.000814344235
C           4.50471785954802   -4.41949566190906    2.02245910879363
S           5.55431412266750   -3.53249423690499    1.00861531659340
C           6.91269165155864   -4.54655730775696    1.43817592612308
C           6.51933987411806   -5.52966350729448    2.33734009926096
C           5.13566991507305   -5.45015452412836    2.66920544927177
C           4.48554130708470   -6.33142405501505    3.55690114465889
N           3.94991571110098   -7.04505600501155    4.27423675264773
C           7.37906079441527   -6.51566715747517    2.85292579707992
N           8.05759594422789   -7.33738060499201    3.27383260760272
C           8.21544019012216   -4.36287159303764    0.91125079448001
C           8.50238307261934   -3.42094313708953   -0.02415457856069
C           9.74727251127915   -3.15383773551566   -0.65202197837500
C          11.06766030213683   -3.29073200088005   -0.23624452830092
N          11.60728231948009   -3.80011207470473    0.96137247826658
O          10.91974872911780   -4.50644428011412    1.67803137830743
O          12.75709781301199   -3.48691444235313    1.21479540081289
C          11.93698934789839   -2.67808132298199   -1.20770140578476
C          11.18618829922138   -2.13722393950960   -2.20014413147758
C           9.80608982167391   -2.41653586992358   -1.93078401593215
C           8.74460564493874   -2.19196220153309   -2.78850797129595
C           7.57633912098143   -2.99995311270779   -2.92475139519043
C           6.89795576548755   -2.61772539531405   -4.04919938134604
C           7.56798257363640   -1.50664548776891   -4.63491884296933
N           7.05697625335994   -0.79323598707211   -5.73748838713570
O           7.54041060410600    0.29476737287704   -5.99973616672087
O           6.14393835450802   -1.30967530914859   -6.35550517714927
C           8.70676680041879   -1.20015564090049   -3.88210915449222
C           9.56656188242530   -0.11075100103151   -4.07953960213978
C          10.27579918882950    0.52050493217990   -3.08545229730014
C          11.19013212219904    1.54762391881394   -3.34774894437563
N          11.78296141246996    2.33314357976731   -2.38923931418743
C          11.60567649975722    2.22742120485017   -0.95911968109975
C          12.44876029702283    1.10032856832264   -0.36799981048973
C          12.66401474522048    3.26927362764312   -2.94629899993056
O          13.29115783080044    4.07783539508650   -2.29380602960539
C          12.60639669003996    3.01715183858234   -4.37597346258763
C          11.70779752750977    1.96919839201985   -4.59059285425697
C          11.70966581135991    1.65136173820236   -6.01170014351860
O          11.11976456756638    0.80904540889440   -6.64743574153464
N          12.61708412916991    2.56843524229029   -6.56616559964460
C          12.93547872348192    2.53384863976103   -7.97652765618399
C          14.24316405840269    1.79533754245594   -8.25020651819498
C          13.17702770581864    3.38520902128108   -5.61856002417471
C          14.16597132331237    4.33260307393031   -5.90520064039900
C          14.69668111057616    5.18546007283798   -4.96574475417978
C          15.77988279346376    6.05724548636179   -5.16274970490131
C          16.71638181545860    6.14961357579671   -6.21396972885647
N          17.03835718641562    5.24374609677096   -7.24310211239526
O          16.61683482592064    4.09765893752443   -7.19280687846386
O          17.75597243343824    5.65763968920271   -8.13650136261550
C          17.49840806723623    7.32757647273665   -6.04537503140863
C          17.05494946172399    8.00226718641458   -4.94602889133234
C          16.01109703490946    7.24626383862497   -4.32577767139290
C          15.39464969759932    7.59937400219724   -3.13324116389769
C          14.94007465009238    6.75024800067746   -2.08715046043317
C          14.67847016318657    7.51225454671110   -0.98236307317768
C          14.87961338512877    8.89090953918763   -1.30608826314497
N          14.58692881386595    9.94140670652835   -0.41417397631470
O          14.62308042169295   11.08613792188186   -0.83411823739142
O          14.30674157170173    9.63676455692072    0.73014881757565
C          15.30192876777991    8.99209341095042   -2.62688301933214
C          15.47143537155112   10.17567433879501   -3.37380638665239
C          15.29607984248356   10.26735022553526   -4.72429923900768
C          15.53323421734343   11.42533845430226   -5.49872846059664
S          14.95383796778082   11.48221471330539   -7.14285720614328
C          15.59610150726265   13.07009033699915   -7.38972785913365
C          16.23956150519558   13.52642200338032   -6.24646714098158
C          16.21320045301426   12.59867022209348   -5.17515668512599
C          16.88651651644832   12.84161317624818   -3.96484245037379
N          17.48696802145116   13.05670310287389   -3.01212252801459
C          16.86372885233373   14.78633235791257   -6.17088666687400
N          17.37292466121588   15.81150678502646   -6.12395101981725
C          15.46882688825754   13.78595541368790   -8.62545453781198
C          14.86261662575772   13.30740306737426   -9.71127792152483
H           3.47007019992837   -4.14679260863025    2.09948000009438
H           8.97710452593029   -5.03296479841312    1.28362414176862
H           7.68169849286298   -2.80615860509375   -0.37846905495089
H          13.00716122327132   -2.68544166227092   -1.12201690129079
H          11.55160822224017   -1.68433461758406   -3.10067311836382
H           7.35030205200012   -3.85772989952427   -2.32169042446948
H           6.00323691526374   -3.05488750138058   -4.45092623147534
H           9.60649220609534    0.29098668232466   -5.08671580255369
H          10.09622816853567    0.24951390694747   -2.05461779484342
H          10.54545618393264    2.08425182209425   -0.73577341650859
H          11.92798514485133    3.18429715541901   -0.53986889430344
H          12.17497041381239    0.13661539223426   -0.79210154431185
H          12.30575659215784    1.06054236856016    0.70785498608548
H          13.50202881934207    1.27923803568731   -0.56854504240454
H          12.97368308602749    3.55469907678029   -8.36445213793483
H          12.10713908968233    2.00559836190680   -8.45681674346648
H          15.09154901070965    2.29882356726359   -7.79289046986118
H          14.40897144931537    1.74370701548269   -9.32237562657801
H          14.18579884262510    0.78172818324021   -7.86131066345999
H          14.52795730281004    4.35800087954184   -6.91914325721620
H          14.22345067225418    5.21648189731388   -3.99539773770411
H          18.31646629774278    7.59304998607759   -6.68789761208170
H          17.49507734611215    8.88696902236340   -4.52960747490894
H          14.91456637967546    5.67962647582124   -2.10940257172917
H          14.36782055333594    7.16673471928636   -0.01450550695936
H          15.66985661692397   11.07335267936696   -2.80068973698405
H          14.89500135743171    9.42087581451566   -5.26700478274066
H          15.91243895158778   14.77348042802058   -8.62614566785388
H          14.41862051956334   12.32481094336047   -9.72514420664701
H          14.79544951409789   13.88380513304884  -10.61594091108004
