83
 SCF done       -164.339406465346          0.000863667966
C          -1.26563803558861    2.02567694323027    5.36077753978490
O          -0.92389747010323    3.10989784904020    4.64449638931168
C          -1.26716179048005    2.80619608514082    3.37005604379893
N          -1.79411007450640    1.61894880452644    3.25412345937407
C          -1.80145806722476    1.10555790863953    4.50664351007205
C          -1.04673272846597    3.76088107706707    2.33447506224175
S          -0.41369614759362    5.33487181924901    2.72440576923911
C          -1.27195936167738    3.66202977786089    0.98252789142597
C          -1.74933702015933    2.64392735700019    0.02601954971175
O          -2.10882813809047    1.51018904953276    0.18206229959853
N          -1.68635376779751    3.28564270530023   -1.21490500308762
C          -2.09710213093533    2.64247129167516   -2.44519135134205
C          -3.58995361603317    2.82669798381031   -2.69350262617907
C          -1.23353449323333    4.58971088174409   -1.15961600631319
O          -1.11304116640532    5.31509166018567   -2.12101850478884
C          -0.95100111974635    4.83851176021741    0.26527986223818
C          -0.46497522468548    5.86495799323277    1.05390036846700
C          -0.03379414805493    7.18044350563497    0.74567662747966
C          -0.08388365800182    7.71709074549085   -0.50096169486409
C           0.35857524136664    9.03520786377827   -0.77481684274206
N           0.26856020797670    9.62162716119665   -2.01294984443106
C          -0.35082345474893    9.05502913314720   -3.18773493471942
C          -1.87290993652433    9.14545409464625   -3.11936838117919
C           0.79131241173555   10.93096631609842   -2.01778456463714
O           0.83012179122571   11.64093006641363   -2.99820228957667
C           1.23429017073645   11.13438747108944   -0.65283825800991
C           0.96173446723344    9.95818482201929    0.08195273954994
C           1.41210949577334   10.17991217422290    1.43683901384436
O           1.36934579864259    9.48390967182451    2.43270419903441
N           1.94815872869265   11.48308207252949    1.42591706127143
C           2.47543212936344   12.04560318047640    2.64609086996080
C           3.97168346874196   11.77775639096981    2.79878795668659
C           1.84276767953460   12.06401396538616    0.18471907633882
C           2.21602752590767   13.36775132683609   -0.24372894179424
C           3.04064375685297   14.25069494389588    0.35892686789932
C           3.34647557465729   15.54418807611728   -0.19424336365265
C           4.65204852297892   16.07725971113927   -0.17900663573147
C           5.80323502536828   15.34801820981950    0.38439430586796
O           5.81538470477126   14.26021662948505    0.88394220791330
S           7.27668185751050   16.34839090731919    0.21362896726743
C           6.39203065042858   17.68651489887167   -0.59575808643945
O           6.93730094757395   18.69392307191746   -0.93441041813169
C           4.96835784413243   17.31739560250189   -0.73123324006989
C           4.00726101984638   18.15855013671925   -1.33383777588467
C           2.70247871124870   17.63147673688166   -1.32930116975447
C           2.39117675779131   16.38837637454038   -0.78405114317730
C           0.91798085137588   16.22436046848203   -0.87083247504397
O           0.19930457611850   15.39551542949682   -0.40773564390501
O           0.43723399966209   17.30076990458277   -1.57538605882339
C           1.44308099932237   18.17411316927565   -1.90524609408032
O           1.23966661469824   19.15091241124290   -2.55557270017153
C           4.37776054819908   19.42914017129483   -1.90287718866424
C           3.63974984329073   20.55319519525251   -1.85579891456166
C           4.07461550734413   21.78675363617562   -2.42643109083054
O           5.24421863668117   21.88795094756661   -3.11450663550698
C           5.31394532506856   23.16197864101166   -3.49286082726759
N           4.30987209667028   23.88918029726590   -3.11776784285311
C           3.50174994000461   23.04120239040549   -2.43509346609332
H          -1.08411199023172    2.03865583199903    6.41510297051451
H          -2.18697817183714    0.12792120202348    4.70470012242569
H          -1.85655107642565    1.58079068747568   -2.35319132192245
H          -1.51621417061792    3.08785191526529   -3.25632561887778
H          -4.16079610734335    2.39409344843427   -1.87530701224025
H          -3.87263432011406    2.33127289536717   -3.61793502589748
H          -3.83099514591417    3.88421038911700   -2.77483898147623
H           0.34464749978772    7.76698751287632    1.57328174448772
H          -0.46849043035200    7.12891883713256   -1.32118204207116
H          -0.03494288188145    8.01582647839222   -3.30641440633672
H           0.01630955303496    9.64031494734070   -4.03522932053797
H          -2.25549293460227    8.57813900181320   -2.27424401672214
H          -2.30359045537816    8.74241357755650   -4.03127489905484
H          -2.18219494594242   10.18277898844588   -3.01485258573541
H           1.94346907903167   11.54759179321929    3.46312454952885
H           2.24719598166307   13.11298534580098    2.67734434361104
H           4.14704281614484   10.70528766754232    2.82943438356028
H           4.32829535524648   12.21278150394680    3.72846187245678
H           4.54583994232790   12.19599165783304    1.97555685886004
H           1.80566745327042   13.60843363130076   -1.21596263498908
H           3.59560665936167   13.98352413660923    1.24331905200372
H           5.36488737681422   19.48120445049807   -2.34137841730861
H           2.68568515400300   20.59645635964251   -1.35498946862699
H           6.15971843413377   23.49488083640320   -4.06081079088619
H           2.57834544733839   23.36773803346495   -2.00442697886404
