127
 SCF done       -228.269334940585          0.000705755438
C          -4.69835778684294    1.47394474607259    5.17194052590266
S          -4.90939999946521    3.06419860759198    4.58385654632293
C          -4.97728033833899    2.49536375621181    2.93744444511418
C          -4.81485115233541    1.13110711234007    2.88221191407500
C          -4.68269898161163    0.54365020014565    4.16947737130721
C          -4.60912489984966   -0.91122809092114    4.36983369705449
O          -4.39293341116163   -1.42026936173574    5.45250372017357
C          -4.88172993726842   -1.69844964688598    3.14736501909935
C          -5.09093143595598   -3.06959898732455    3.26942386883543
C          -5.38039779549629   -3.84240769582593    2.16155794207605
C          -5.44795797633413   -3.27071875120913    0.89480264554644
C          -5.82073522778366   -4.08854423825284   -0.30557087128214
C          -7.32105699666282   -3.95919062422365   -0.58053348929488
C          -5.21036269164444   -1.90839284887615    0.76696832942178
C          -4.93765275529094   -1.11498963783117    1.87299510676295
C          -4.68716278809644    0.32796716088687    1.65605020244302
O          -4.34695597150001    0.78272825872760    0.58280626268531
C          -5.23089122947790    3.39501489234938    1.85299182380036
S          -4.48603567822026    4.96047277083758    1.83809899721631
C          -5.23261703245730    5.36072888061392    0.32447956509434
C          -6.00156692465664    4.31689696836494   -0.14212688509608
C          -6.04020178222971    3.20805905566103    0.74574227813042
C          -6.98362851940556    2.09902644112364    0.55079981578936
O          -7.08554012405012    1.14826729114273    1.30782758287720
C          -7.87999126616878    2.25051057919152   -0.61538359706600
C          -8.91013590572742    1.32838092785127   -0.78482910636852
C          -9.77757519325164    1.42350688353210   -1.85574476433833
C          -9.63017542319018    2.43214606017729   -2.80323390694139
C         -10.59181859077231    2.57391245288187   -3.94544598870669
C         -11.64247051211243    3.63915158583224   -3.62483243313181
C          -8.59218441680249    3.34067654888454   -2.64680772073627
C          -7.72408633515130    3.26774718794917   -1.56502907533153
C          -6.65649832178625    4.28218163712554   -1.45723197810691
O          -6.34289873753244    4.99985577833616   -2.38628731905682
C          -5.06944176701264    6.66797676285503   -0.23958282133786
S          -3.52488011896840    7.45694523858531   -0.20628487819420
C          -4.15101773551379    8.84042190218869   -1.03701280683685
C          -5.49534349636156    8.69192920145178   -1.31528547360872
C          -6.01941740183498    7.45497704831011   -0.85822840072234
C          -7.44867589531510    7.13314740362117   -0.99612315354237
O          -8.03400045875797    6.31251421670319   -0.31481892980997
C          -8.12455001969862    7.91517783280803   -2.05023635116764
C          -9.31473395324911    7.43938720329028   -2.59012102592138
C          -9.96340230002689    8.14196903445745   -3.58797255521192
C          -9.46047294528985    9.35631633353201   -4.04558573243075
C         -10.13715472121480   10.10743261867501   -5.15359078222822
C          -9.49327240214523    9.75912095446997   -6.49769006913768
C          -8.28797005053937    9.84560002542793   -3.48470470409641
C          -7.60676179172422    9.13298261136267   -2.50696982956492
C          -6.35141369933872    9.69487444784746   -1.96308636389956
O          -6.07139814723729   10.87506794908154   -2.06244665403703
C          -3.29633618883271    9.95394663069230   -1.33112270515220
S          -2.27138191976708   10.60493554866509   -0.10035056253267
C          -1.72581678932801   11.89183498379891   -1.14542281976193
C          -2.39325398816057   11.82540894896969   -2.37939112390503
C          -3.26368977583245   10.71091979835451   -2.47915673554318
C          -4.01191957582095   10.38173439169032   -3.70124469643344
O          -4.39309741962613    9.26097767886869   -3.97622985671641
C          -4.25276723550724   11.54744632180335   -4.56771798921408
C          -5.24034774692426   11.48610758733402   -5.54440710231176
C          -5.49504222732196   12.57756814146531   -6.35172540677498
C          -4.75233050155409   13.74740649835009   -6.21794052317308
C          -4.98477795370534   14.91450861937664   -7.13059770960250
C          -4.05431218970431   14.82697894692926   -8.34290051434416
C          -3.74729139496141   13.79530964510990   -5.26123282829439
C          -3.49593289736575   12.71446845908515   -4.42369069982641
C          -2.38988471557805   12.82266255821215   -3.44328623953390
O          -1.57377913805470   13.72780048773261   -3.54250348293733
C          -0.70083869898090   12.79400221046673   -0.72094945888423
S           0.20019673426254   13.72172904045166   -1.89873242499880
C           1.20387898526730   14.38599144005667   -0.70004089144205
C           0.85779254161777   13.99557668744638    0.56442407142551
C          -0.20983530304030   13.05455032614623    0.56616425219748
C          -0.67019218748122   12.49310978645644    1.82365734117419
O          -1.44195454268209   11.54383047376045    1.90325317006829
C          -0.13179692673003   13.11138345869626    3.05197835789408
C          -0.65905763318442   12.70878814858912    4.27778431931345
C          -0.17431399520730   13.22960975618312    5.46068037000351
C           0.86263064178946   14.15882030915444    5.45838345596072
C           1.36231230652740   14.75544404131539    6.73959296304980
C           0.57048916035928   16.02203292030690    7.07436780859062
C           1.39216036542150   14.55698022855903    4.23869280169572
C           0.90730164615785   14.05019255651042    3.03900534467769
C           1.51001556418426   14.51266495413325    1.77075934103852
O           2.45421716788689   15.27931200473544    1.73186660206660
H          -4.61439165777211    1.28875785574114    6.22492038494027
H          -5.02953495291981   -3.50919887157553    4.25413025424428
H          -5.55431706372503   -4.90256372317775    2.27806365758747
H          -5.57210627896893   -5.13764912399966   -0.13557927353050
H          -5.26505633027292   -3.73850231193803   -1.17742411322366
H          -7.89428656367934   -4.31704464604306    0.27186373019865
H          -7.59764313572167   -4.54234001743814   -1.45560142205486
H          -7.58338157370485   -2.91869487946224   -0.75719349012197
H          -5.24092525023987   -1.43359316127698   -0.20317431122427
H          -9.01481432093483    0.54108306763444   -0.05264396543439
H         -10.57733011267627    0.70455631822487   -1.96260399874429
H         -11.08857213662182    1.62125051985907   -4.13539473782146
H         -10.04996253081223    2.86600029706869   -4.84670406046810
H         -12.19807197114355    3.36646660498341   -2.73073970622636
H         -12.34174904863281    3.74148436695276   -4.45116655894078
H         -11.16494812556731    4.60017337515353   -3.45174871090420
H          -8.43775872404681    4.13198675690331   -3.36680261116670
H          -9.70871109805467    6.50612946943369   -2.21475314000943
H         -10.87756398906984    7.75171878545139   -4.01265864263876
H         -10.04501186455322   11.18095480262371   -4.97917499726887
H         -11.19795878217355    9.85296246276906   -5.18369248655581
H          -8.43607849064336   10.01210942329718   -6.48692014221217
H          -9.97524418194197   10.30866867926661   -7.30264021092517
H          -9.58703743920294    8.69469813033796   -6.69851615272523
H          -7.87748234577558   10.79313371238157   -3.80421092773559
H          -5.79959033760596   10.56750362273992   -5.64542989517937
H          -6.27566789593340   12.52585562188144   -7.09748030068103
H          -4.79110268763054   15.84617429132721   -6.59632735134948
H          -6.02192936068939   14.92098001937531   -7.47080236792313
H          -3.01516398869617   14.83313107218321   -8.02281840397669
H          -4.21881352807101   15.67127523019494   -9.00771255115911
H          -4.23696090355637   13.90810011305963   -8.89553497860551
H          -3.14322500609395   14.68390932569027   -5.14668645661053
H           1.97834966845674   15.08408855227304   -0.95272143052534
H          -1.45526345370582   11.97928408810558    4.27709560384315
H          -0.59852706342924   12.90780162529016    6.40083279027879
H           2.41940194819541   15.00792856848356    6.64266240441474
H           1.25164649729073   14.03562403483341    7.55272249683290
H           0.68027762997294   16.75721306682611    6.28062872832328
H           0.92950829141288   16.45716645379286    8.00362644604099
H          -0.48672883150531   15.79092284102069    7.18404810577085
H           2.20079586522599   15.27251330507761    4.19525637306606
