130
 SCF done       -228.663063530469          0.000522956306
C          -1.04043311992133    1.21218574719689    4.28548604938592
S          -2.31255188138388    1.29559075367617    3.16253462149125
C          -1.54992856461954    2.61162621825583    2.29615133868819
C          -0.31254203610131    2.91742352694279    2.89192137078199
C          -0.02921617844575    2.09076014717258    4.01649163554244
C           1.20052414589372    2.15230488077059    4.81326469289111
O           1.39402626053244    1.43336880016816    5.77670255901393
C           2.18069914352318    3.15000035577448    4.34942836496273
C           3.39488333375807    3.28021136860244    5.01965330145997
C           4.32564271878796    4.21243139759467    4.61305056757528
C           4.07614785555070    5.04922496009762    3.52375199482059
C           5.12632798665744    6.04998669035828    3.12701890432451
C           4.72371616053630    7.01922725151021    2.02334769552051
C           2.86839208579599    4.91578609929493    2.85701878476003
C           1.91684874515728    3.97772597481721    3.25363697081084
C           0.64855536860155    3.92709599662632    2.49250755669287
O           0.45702014446898    4.73010339745151    1.58429981454083
C          -2.23905435335634    3.25207268269981    1.22039707845058
S          -1.65186477010918    4.75670457453204    0.55447234898107
C          -3.05899706693885    4.95230945597912   -0.43713123007584
C          -3.93216044807078    3.89420802000732   -0.28593864329092
C          -3.45831592867389    2.90344859405709    0.60850503480259
C          -4.14589634563723    1.61438950217930    0.66089086329445
O          -3.81382576322326    0.69369569348436    1.39575909382821
C          -5.24560907582856    1.42670204962037   -0.30622941881665
C          -5.75939472052422    0.14539993658645   -0.49492696657766
C          -6.79007914024247   -0.07440783928429   -1.38814412273631
C          -7.36216660450801    0.98107058221565   -2.09185558355181
C          -8.43579593259406    0.74882913622763   -3.11190106491627
C          -7.81913391552844    0.72079372577910   -4.51285690629572
C          -6.87772180646961    2.26440825313776   -1.87458681913001
C          -5.81920001499705    2.49163270390730   -1.00945632377571
C          -5.29633547038599    3.85813245918362   -0.84464310818766
O          -5.94458164515320    4.85940855451041   -1.07017598599809
C          -3.17151091750903    5.97061599592673   -1.43355472230724
N          -2.67703529116432    7.24490492897249   -1.34782162927686
C          -2.08792064716824    7.86973761017141   -0.18874058065892
C          -3.11026984055348    8.06658672895571    0.92632506896994
C          -2.93972559100873    7.98447437346355   -2.52312419295529
O          -2.62506409747053    9.14807866155024   -2.65903313540509
C          -3.60684813248025    7.04382310743252   -3.39403827591589
C          -3.73338748728525    5.81640382674239   -2.69027105381415
C          -4.39780065433455    4.86844092061276   -3.55333856381871
O          -4.66231189724706    3.68801659913402   -3.42295928462008
N          -4.69062352121015    5.60654950106629   -4.71008080853833
C          -5.43132081240211    5.02031393823132   -5.79964337180439
C          -6.91799313874542    5.35935014790500   -5.71580933521949
C          -4.22061975299899    6.89982168544401   -4.63234086689930
C          -4.37881000395729    7.86173246150780   -5.66333851981455
C          -3.65582839862504    9.00693032254956   -5.70791430738123
C          -3.84192496489503    9.99998642926202   -6.70555034508697
S          -5.36825999870547   10.18083819190909   -7.50532326838781
C          -4.82488942047834   11.57350015887404   -8.39377440323940
C          -3.46799185933848   11.81931747032401   -8.12747095558343
C          -2.91580294411823   10.91551848706262   -7.18431334775310
C          -1.49905006053175   10.87641600866151   -6.81799129035903
O          -1.01845615936023   10.01969907104037   -6.09698433662514
C          -0.67376350373069   11.93596264863657   -7.43059226069195
C           0.67179610514630   12.02807797762012   -7.08636636537409
C           1.48269075739226   12.98681782290869   -7.66035433226049
C           0.97165778528663   13.87950398306607   -8.59902491587531
C           1.86091510769067   14.88658038792888   -9.26544236764603
C           2.47525262548043   14.29089519232420  -10.53467675740254
C          -0.36863126269240   13.78608505325902   -8.94324930432642
C          -1.20138915738956   12.82922052072364   -8.36929924724299
C          -2.62247477462870   12.81649580020251   -8.77261119763590
O          -3.02966974057107   13.61236370392629   -9.60954208565504
C          -5.76972844342480   12.34837984202617   -9.13872013858009
S          -5.41182499117460   14.00539188278991   -9.56178965877339
C          -6.99606194940789   14.26933235213214  -10.11499441535469
C          -7.77470066636533   13.14587554908792  -10.06437179039576
C          -7.08830734410341   12.03449656556030   -9.49800453833048
C          -7.74034922289563   10.73429796372289   -9.43931533026489
O          -7.19746235126964    9.71730792689338   -9.02204016669241
C          -9.13133891820679   10.67814755647654   -9.93517616555520
C          -9.80195400044843    9.45768102678644   -9.87213542138105
C         -11.11354175968612    9.34614643917871  -10.28907059816130
C         -11.80186968798935   10.45253315276489  -10.77837960306276
C         -13.21567042591209   10.33656730600616  -11.26320467564364
C         -13.24301740364235   10.16586647825140  -12.78408661986620
C         -11.13376985354157   11.66732809242934  -10.84984392819235
C          -9.81330325906409   11.79377779333853  -10.43763918505498
C          -9.15821615942481   13.11405215492377  -10.54309785713456
O          -9.72281296322950   14.09453300736817  -10.99213573348547
H          -1.05021847801802    0.49058352667242    5.07940505624436
H           3.58165180907865    2.63381475028951    5.86423828708824
H           5.26238072941661    4.30195672767213    5.14455060396011
H           6.01790620439321    5.49781264352141    2.81297264376180
H           5.40628329689136    6.61775461727039    4.01944868771311
H           4.52498855713219    6.49225823716101    1.09346065849525
H           5.53118177457803    7.72572661422747    1.84524993705452
H           3.83667530758660    7.58091604980355    2.30633158194941
H           2.62524258357426    5.53715370831239    2.00965832662002
H          -5.32513892779821   -0.67084095749255    0.06322386660540
H          -7.15932124706813   -1.07850129525640   -1.54075424948555
H          -9.17190105684115    1.55353138458955   -3.06056001306228
H          -8.94402849359310   -0.19723395823334   -2.91716345944176
H          -7.28479763694488    1.64770178233788   -4.70598036605625
H          -8.59308009145047    0.59603671038404   -5.26650787220867
H          -7.11337035011959   -0.10225312257507   -4.59822502428038
H          -7.30056867539243    3.11069198603997   -2.39410629996556
H          -1.71945271591382    8.84007939298834   -0.53422872942728
H          -1.24187829481544    7.27353732794157    0.16453969851342
H          -3.93415839040675    8.68291211096146    0.57443959827558
H          -2.64075783367206    8.55900348721053    1.77315113221059
H          -3.51094720580754    7.11092929563414    1.25657329413312
H          -5.29598317681812    3.93822108581377   -5.70906859158630
H          -5.00774269999408    5.35134340556854   -6.75142959388873
H          -7.31593747765772    5.03185823445852   -4.75835472294097
H          -7.45820644064023    4.85458496004773   -6.51234524820464
H          -7.08012864190929    6.43082102394095   -5.80672612220929
H          -5.08463655868450    7.65079845952916   -6.45588561672976
H          -2.88046495093709    9.19383487050312   -4.97598379165849
H           1.05859814087631   11.32971875039583   -6.35918083626890
H           2.52443700228994   13.04726428249883   -7.38001130978548
H           2.65981285762208   15.18484413943128   -8.58398828032447
H           1.28247806777368   15.77364019762279   -9.52877637639253
H           3.06691965504221   13.41071915511921  -10.29319306763399
H           3.11895553191589   15.01960317291612  -11.02106953551398
H           1.69350785747091   13.99756013408119  -11.23141098860140
H          -0.79712358509446   14.46330067569459   -9.66813451588422
H          -7.29401089860771   15.22266126018643  -10.50655177244761
H          -9.26889047824894    8.60220093635770   -9.48452837243008
H         -11.61444060710335    8.39056834266140  -10.22970584630723
H         -13.77042650385652   11.23754548377669  -10.99459860762868
H         -13.70144955572324    9.47941187729474  -10.79354096901576
H         -12.77579456078576   11.01929900933274  -13.26952435781697
H         -14.26837360063084   10.08425899238827  -13.13591620208511
H         -12.70290427201479    9.26759813579289  -13.07500795473156
H         -11.63191408681619   12.54961593778587  -11.22563296177744
