105
 SCF done       -179.683426128063          0.000354657910
C           7.56364926918157    8.02990875621872    4.39421013198238
C           6.91492831843844    6.89809027362537    4.15979692785078
C           6.85605087976237    5.72775981666901    5.03985040079011
C           6.97436106942677    4.49108812566723    4.43396375552720
C           6.96497753021123    3.30947521752130    5.18317373984356
C           7.08009908398689    1.97174518566622    4.73260266925270
C           7.40780520728837    1.41842168166629    3.48782359623416
C           8.02765827490629    2.05583329273627    2.44518881389720
C           8.34255427078642    1.39263662826858    1.24653267271208
C           8.01544878388539    0.09755062656185    0.83352841453238
C           7.30045181878360   -1.09925630360705    1.19785150081646
O           6.67617794103306   -1.41518188556495    2.19487818886328
N           7.46397250374237   -1.95910941291404    0.09115454117175
C           6.88796326017047   -3.28040101024256    0.08075418316521
C           5.44355813752891   -3.25777426602807   -0.41331847766756
C           8.24671071907434   -1.38616040640599   -0.87743888363404
C           8.64446295246575   -1.95388134415477   -2.12495214596556
S           7.58978033097305   -2.89472650323322   -3.14936486972198
C           8.73331468386424   -2.88401634262152   -4.41996916723463
C           9.87053128554405   -2.19867836570461   -4.09492170689823
C           9.83570993227033   -1.68302916928458   -2.77025101540099
C          11.03563574339499   -1.09532996046613   -2.15756707074735
O          11.24054188229056   -1.06994824249518   -0.96035648832509
C          12.03535059801110   -0.62684464644777   -3.14342850966026
C          13.03082780424532    0.23342316783186   -2.70251605111245
C          14.00973333802906    0.71068427671891   -3.56372193284657
C          15.02886989629176    1.69412515529249   -3.07047832973886
C          14.43073173832224    3.10276961391872   -3.05021076432292
C          13.99185283220196    0.29020031656845   -4.88986646753072
C          13.01895129868636   -0.58126668803298   -5.33980189290815
C          12.02257014158625   -1.04213960666484   -4.48278284016996
C          10.99553355794900   -1.96237515084914   -5.01320714674439
O          11.05148456782923   -2.45240610363173   -6.12526132740415
C           8.58646682404901   -0.11513954691590   -0.44607100617814
C           9.27054881078050    1.09114341311124   -0.85097120727070
O           9.87793034009185    1.38656667541132   -1.86202382928186
N           9.07153684770139    1.97036088296215    0.22234196930863
C           9.70026138945255    3.26719346521285    0.23881318260686
C          10.98415792232136    3.26324026294864    1.06535098796410
S           6.80970307521877    0.86596451252406    6.04955286474334
C           6.64989720016115    2.13589253666890    7.21857589459186
C           6.48823043561619    1.89345515179362    8.58926476538335
C           6.45093983927462    0.64381234543654    9.13883165838210
C           6.32914370649622    0.31157648006050   10.50918712350511
C           6.15863611483923    1.23582720665072   11.57594319937456
N           6.03334652887293    2.55135520824303   11.31724771150032
C           5.85475141794107    3.38285318040389   12.30963488805765
C           5.78327392488957    2.94005226790293   13.63964536415430
N           5.90950431363910    1.67280801048310   13.92222489680102
C           6.10313653953819    0.78613332909599   12.93392648672368
C           6.24490366288797   -0.57956932739501   13.29608627787628
C           6.26268608239122   -0.95506634386858   14.66992708022273
S           5.77948845665515    0.22456923166136   15.87296549673675
C           6.02054178936540   -0.90574468133255   17.14428783895557
C           6.49146162431723   -2.09620492236948   16.70196422438971
C           6.63153637214075   -2.14305797835548   15.29560104703466
S           7.29453673032485   -3.57719273090944   14.54805848182981
C           6.32752807356582   -1.50255121927055   12.22562351423248
N           6.32603329146965   -2.81796056229369   12.49696890175061
C           6.39020671768885   -3.67783902233864   11.51721666111591
C           6.46841614454690   -3.24539707215366   10.18327365915814
N           6.45798459867005   -1.97679917091112    9.87532678945276
C           6.37301687341497   -1.06691770522860   10.86461736349491
C           6.73413269181601    3.39768729218023    6.58435786580024
C           6.58464646810036    4.65527541770750    7.18247107950929
C           6.65751655661724    5.81242658742884    6.44332488351595
C           6.45614872086495    7.12462719563919    7.13794390638456
H           7.58016885329087    8.82496318945889    3.66791049023034
H           8.12507197034891    8.20009927169738    5.29583445914754
H           6.41696832325288    6.76452067295721    3.20608418907418
H           7.06001479131038    4.44695774952131    3.35997583683912
H           7.20148087956548    0.36094606076354    3.37627971114434
H           8.34676284315592    3.08059854694734    2.55002950358591
H           6.90940144356771   -3.64258361604007    1.11295854566293
H           7.50251970619061   -3.93387659502133   -0.54281263246694
H           4.84217247950800   -2.63719591816046    0.24607772453095
H           5.03803082424739   -4.26542914899169   -0.41248352189953
H           5.38623044617260   -2.85796301956433   -1.42321321682024
H           8.51529360416596   -3.37233317159064   -5.34936868264584
H          13.01922784379743    0.52958553414595   -1.66396525463729
H          15.90787336102353    1.68064374711606   -3.71747214647291
H          15.34055551400170    1.42289713999409   -2.05979760568588
H          14.14573212211609    3.40665394812982   -4.05483407914884
H          15.15364080339397    3.81653167289250   -2.66209403729379
H          13.54299468125052    3.12580839333563   -2.42277158895506
H          14.74995126030872    0.64623367426448   -5.57281720038541
H          13.00591491464584   -0.91928533436276   -6.36562373044694
H           8.99631064283903    4.01616615355814    0.61361181269167
H           9.93600885126484    3.49833397325818   -0.80425240999804
H          10.77679135912930    3.02293822143421    2.10575724598979
H          11.46056967480918    4.23891917971110    1.01736874501947
H          11.66961317021702    2.51720934896974    0.67096474020284
H           6.40417008959104    2.75060058446280    9.23919629720115
H           6.54508314472309   -0.21281590443904    8.48250579769587
H           5.75866433676062    4.42963252261324   12.05338934542627
H           5.62086120512929    3.61366049508382   14.46898802315500
H           5.82654838877453   -0.61829056665585   18.15881220102024
H           6.72932678986842   -2.93067224938630   17.33849597071621
H           7.83273494712544   -4.00409842050832   15.71823738235134
H           6.38588310792179   -4.72341748935560   11.79077330776579
H           6.53470594910633   -3.94424316332581    9.36083235717923
H           6.39043174500810    4.71344868447978    8.24280455678455
H           5.84792954342806    6.98627363312850    8.02925342898224
H           5.96982869791625    7.84491876297346    6.48479042991210
H           7.41330195322483    7.54105633966217    7.45196953451957
