110
 SCF done       -186.158845544615          0.000219481781
C          -3.53815321973614   -0.58760709631687   -5.18116677218736
S          -3.11810423469262    0.99948560978318   -5.66405909544235
C          -4.19669541557451    1.69832572688565   -4.47887969939776
C          -4.85435885744686    0.70663310584813   -3.77479181752990
C          -4.45346262835680   -0.60150623938811   -4.16703631559285
C          -4.95431158854346   -1.81883068765268   -3.51296224280369
O          -4.66280807784676   -2.93867655805464   -3.89057397226354
C          -5.80362023762106   -1.56096398586397   -2.33186524862677
C          -6.15411312196863   -2.62987641482466   -1.51048404366932
C          -6.93084284519076   -2.43205998302008   -0.38593384525555
C          -7.39564874136431   -1.16173760095351   -0.05935064135202
C          -8.19141161824454   -0.92477570084799    1.18971413521938
C          -7.26198535783290   -0.48920087818350    2.32510326254043
C          -7.06786287606361   -0.09951733452081   -0.89068882937510
C          -6.27478116116519   -0.27894708072959   -2.01548946072253
C          -5.98046010516888    0.90529286218587   -2.85577596529661
O          -6.67183731091882    1.90510337760363   -2.83344284557874
C          -4.23901085479534    3.08877343606538   -4.17329775855242
N          -4.12140941331937    4.13553545793707   -5.05709212554531
C          -4.08310463655113    4.04570058689085   -6.49436976617140
C          -5.40448958477357    3.54314037875290   -7.06895448536018
C          -4.21083412074178    5.38142049980366   -4.39875877563013
O          -4.17305899674387    6.45255341735412   -4.98174979418341
C          -4.33642371179537    5.03590636429790   -3.01214150273976
C          -4.35579163664009    3.62879419556538   -2.90119879304503
C          -4.44786775357808    3.29510878110420   -1.49805799610365
O          -4.47831160757796    2.23116145048412   -0.91198080938765
N          -4.49866411820261    4.53822231750169   -0.84079845003994
C          -4.65464634008182    4.57122105685904    0.59226943852110
C          -3.32686090240243    4.77245187584237    1.32176135152933
C          -4.43659708367975    5.59812204672100   -1.73057140373112
C          -4.50555826226322    6.97528225998905   -1.51411450972156
C          -4.54016814744497    7.65776218654916   -0.31594912198100
N          -4.71406549077203    8.96597306720337   -0.21859061075041
N          -4.94396500410498    9.80755524040354   -1.29705959608951
C          -5.55756779563099   11.01412843937532   -0.76948766379331
C          -7.09289216309286   10.96745699475372   -0.78258909046051
C          -7.68044954066871    9.71648371143458   -0.12576128147051
C          -7.61194326556973   12.29918164305924   -0.20012288621712
C          -6.79343373624494   12.80309060390603    1.04581370975058
N          -7.74191584297273   13.24623738549603    2.05297191524405
S          -9.09920938244671   12.21272183845563    1.89654661224285
N          -9.01283193630787   12.18310599144209    0.17486612578883
C          -5.90942535947306   11.72150884347548    1.68239342108971
C          -5.14040713763126   12.33342183942974    2.85136615748635
C          -4.96400763082510   11.09351778490510    0.64614059918272
N          -4.72503569111663    9.69236144970025    0.94896436122700
C          -4.06443451383711    9.24479749702105    2.08920319854471
C          -4.61744742036107    8.16688585212987    2.80586171803153
C          -3.94683371545918    7.61326241850311    3.94303558700434
N          -4.52211907051232    6.60400344982622    4.61389874865722
C          -5.69116916224217    6.16109888418500    4.22656029399234
C          -6.34993176258343    6.71559356174485    3.11948477662313
N          -5.81784740870044    7.68304864689889    2.41461915057877
C          -2.71234424654725    8.14000765181514    4.38965221177014
C          -2.24745274430745    9.31431144374576    3.74416877500185
C          -2.89143950534744    9.84979674332031    2.58071387156411
N          -2.35801525956274   10.91321741333231    1.94565442312320
C          -1.25509612350357   11.43436725104233    2.42332473030390
C          -0.66242269731704   10.95624445950337    3.60051499256118
N          -1.16261271274647    9.92763406525909    4.23576750622633
C          -1.95250326845329    7.56090410500641    5.44812971787600
S          -0.70442346777016    8.51388104009091    6.21954584011613
C          -0.32989856831408    7.22901001765334    7.29684068257869
C          -1.06479764561473    6.11591264848244    7.05826275496296
C          -1.99496216888157    6.29021970768617    6.00800423764009
S          -2.97926354438604    4.94305477369094    5.47844822571689
H          -3.08947566813131   -1.43528402841375   -5.66043938220291
H          -5.79620661258263   -3.61430043477900   -1.77429679141485
H          -7.18333527247429   -3.27144548864236    0.24632963055108
H          -8.71654877621884   -1.83710127432725    1.47906715388040
H          -8.93137707712551   -0.14221166571661    1.01136264548717
H          -6.53665256831921   -1.27041409847575    2.54076635306330
H          -7.83352711769509   -0.28576713504738    3.22774109217132
H          -6.71976225400341    0.40999400818000    2.04271353454155
H          -7.41787716100894    0.89900659718933   -0.67400019719455
H          -3.25837742084571    3.39591334436791   -6.80408886099828
H          -3.88433989902884    5.06259014432472   -6.84597707933639
H          -5.63083831144280    2.54446879298335   -6.70207752017322
H          -5.34790887202081    3.51231670656994   -8.15354646707322
H          -6.21389982785815    4.20783666776064   -6.77725486622882
H          -5.06006253005981    3.59264512774132    0.86926735394216
H          -5.38570875691672    5.33760581059489    0.86314368083160
H          -2.67248369269755    3.92725205085000    1.12460929765390
H          -3.49557252884212    4.83393207630052    2.39453913866758
H          -2.82142772183290    5.67768288816800    0.99010527940158
H          -4.49783082137607    7.53913044189033   -2.43638804592192
H          -4.41065326209818    7.15449359605314    0.62246183775884
H          -5.50654770385387    9.34466199658493   -2.00763980712724
H          -5.22175196414900   11.85946950135959   -1.37878158976336
H          -7.41346626182670   10.94878721889736   -1.83190422673939
H          -7.26258266663018    9.50434016469695    0.85217058218516
H          -7.51553896745066    8.84676820935736   -0.75935700016871
H          -8.75282512572689    9.85100985931593   -0.01782817403951
H          -7.52110637247690   13.05472755066520   -0.99041711372976
H          -6.16039052528030   13.64796575329799    0.75606941804832
H          -8.00535028744489   14.22099274455488    1.94334378641373
H          -9.58482904905388   12.91799813760018   -0.22655570607700
H          -6.57345296489094   10.95361287798805    2.08517908790939
H          -4.39188868142396   13.03783089746545    2.49481534800381
H          -4.64244786418110   11.56156934634106    3.42955144557620
H          -5.83427724873077   12.85750619446045    3.50272101250439
H          -4.01403964862797   11.64291793254338    0.63026844572365
H          -6.11091050521351    5.34583765767515    4.79762190447560
H          -7.32034575257226    6.36279689223781    2.79908415233065
H          -0.84466432695636   12.27465900184195    1.88042810863063
H           0.20586462989451   11.42537542982356    4.04000478255685
H           0.43463655972825    7.35976015076361    8.03687826009127
H          -0.96752175024860    5.19402803923120    7.60462692146356
H          -2.12399781832609    4.03253641820778    5.99720725783738
