116
 SCF done       -208.044996915615          0.000518344085
C          -6.35186772295303    2.59270496355610    2.00345034132838
S          -5.06177677820679    1.83450755696527    1.17729232314684
C          -4.85862314235084    3.21497348873677    0.14134125083005
C          -5.80769313476268    4.18213505141589    0.40573691059234
C          -6.64682739062173    3.83165704773202    1.49995206345797
C          -7.66372907279370    4.74015362708128    2.04344631218747
O          -8.41876762147343    4.42841848959741    2.94520282136652
C          -7.65519366984549    6.08919483872785    1.43410933536583
C          -8.42322438549071    7.09425091499007    2.01654455612392
C          -8.43822644078411    8.36946273657366    1.48658062439865
C          -7.69741082391990    8.67459389479994    0.34850971337433
C          -7.74976338852122   10.04396582203637   -0.26121759469435
C          -8.84024050102633   10.10106143309352   -1.33377395524099
C          -6.95096779067825    7.66727118263859   -0.24811644468408
C          -6.91170306445563    6.38468955085653    0.28300348753698
C          -6.11156456203324    5.35428161366677   -0.42326433747788
O          -5.82858332107157    5.44983087715370   -1.60145047247086
C          -3.73760059044199    3.30382405610327   -0.74556499060762
C          -3.21594891013074    2.15365277421405   -1.37044311956657
C          -2.17148013293069    2.24634226161271   -2.34501113054722
N          -1.79719146118087    1.13816525640888   -3.02357645722215
C          -2.36816835929050    0.00459935453906   -2.72372900044848
C          -3.33807049410331   -0.09607331990840   -1.70405720035459
N          -3.75418911602159    0.95626052166701   -1.05970495927828
C          -1.59486108859281    3.49474560165315   -2.65367131232439
C          -2.05066769842538    4.63341675877588   -1.94997038146718
C          -3.11294796206519    4.54190122908864   -0.99860605389381
N          -3.49307901371546    5.63683925661888   -0.30742442249731
C          -2.94986450627362    6.77716589971215   -0.61438309853089
C          -1.90298737277503    6.86748593676050   -1.55976282174529
N          -1.43125410032580    5.81340580872298   -2.15554422773726
C          -0.65224399705312    3.71789698244760   -3.72012380564833
N           0.46655580600774    2.98738173808865   -4.00185384885027
C           1.04555405156526    1.93568018229583   -3.20324694150411
C           1.49144835229878    2.44521279019834   -1.83586350764683
C           1.17739988590433    3.52697758413626   -5.10305254923834
O           2.22443712133228    3.06762798073699   -5.50706510304694
C           0.37491419475091    4.65152116148325   -5.52211592493119
C          -0.72484168050167    4.75851362662756   -4.64062812753914
C          -1.53817751838395    5.87064531461190   -5.08666904956234
O          -2.57298447529988    6.35075119803217   -4.67965197055168
N          -0.84344251417211    6.38390263050310   -6.20785463092564
C          -1.40404526095316    7.50186774908271   -6.92721476591227
C          -2.14543391853192    7.05746435205479   -8.18610779124689
C           0.29342535591617    5.65933402877366   -6.48614953893264
C           1.27771581348016    5.82675484314542   -7.48961485858298
C           1.34341734453979    6.75182315645977   -8.48429615019475
C           2.40273982427569    6.90409666450715   -9.42562884969108
C           2.21706097099210    7.85455586873914  -10.46785207359643
C           3.16607390194578    7.99481609825420  -11.52406746220270
N           2.95789361123785    8.88052936527115  -12.52065460273676
C           1.87341869505501    9.60153887919229  -12.48827314369135
C           0.93640203861041    9.47060169109838  -11.44238132741620
N           1.10766640435691    8.62361857486292  -10.46509046566473
C           4.32932658831701    7.20014544388961  -11.56102235975147
C           4.60269546202382    6.37685066194986  -10.44685913104643
C           3.63077478538401    6.19290000587783   -9.41190246379884
N           3.89766550184061    5.32891669247603   -8.41322542106663
C           5.02660419049609    4.68244078517702   -8.41446582149264
C           6.02540606218317    4.95814816910515   -9.37268579978071
N           5.81546774778404    5.79655813812272  -10.34460792452065
C           5.22395395251034    7.25615207035265  -12.67345438311469
S           5.44912157632665    8.74074093261448  -13.55075306281940
C           6.73247753481597    8.06065028401411  -14.45113393339784
C           6.96564173417365    6.74855508915619  -14.13431857574800
C           6.07756750615821    6.26903584850117  -13.13077810468329
C           6.00030250209796    4.83809685450675  -12.82096153498542
O           5.01093946642996    4.28789645455611  -12.37059717039881
C           7.21616235150068    4.08127290700792  -13.19682327750508
C           7.39763777370727    2.80727430996519  -12.66705490077124
C           8.50830970390551    2.05523483639533  -12.99713316375083
C           9.46028055817534    2.54607780239757  -13.88593941523985
C          10.68765906403699    1.75017767234139  -14.21724744074740
C          11.82398350805634    2.10698057686468  -13.25580797896075
C           9.27238473388545    3.80998994090215  -14.42713660262591
C           8.17004060081253    4.58747684011237  -14.09049814034502
C           8.03377323875598    5.92684973125755  -14.71119226142749
O           8.77151897353269    6.31929272622638  -15.59558611531193
H          -6.84668454635604    2.10174121750956    2.81860277504874
H          -9.00294349072209    6.84879458245129    2.89415256317029
H          -9.03233173016188    9.13944635779373    1.95761141055003
H          -6.78707082924502   10.28287108677762   -0.71687359400998
H          -7.96134016057950   10.78741460877522    0.50970593775210
H          -8.63792007674015    9.37351616435084   -2.11604285978906
H          -8.88018701272009   11.09146925654769   -1.78065311948768
H          -9.81143817865389    9.87595437854349   -0.89898933031638
H          -6.37817371554811    7.86359497931785   -1.14338537446077
H          -2.05307702706365   -0.86058928651249   -3.29135741731976
H          -3.77173236089036   -1.04568770888580   -1.42331327224073
H          -3.27906219199224    7.63993956076416   -0.05080045266210
H          -1.40041012389290    7.80465911377499   -1.75478316181411
H           1.90856410636657    1.57631007312080   -3.77079237296598
H           0.31957562861856    1.12640921403197   -3.09403332720342
H           2.20116239038262    3.26160128845531   -1.94930916625944
H           1.96962162179035    1.64179892239905   -1.28204429596763
H           0.63966593979755    2.80465908948499   -1.26186747966919
H          -0.61774192170917    8.22385913080940   -7.15857188346178
H          -2.11606620677990    7.96747020251476   -6.23828030960883
H          -1.49087710335231    6.50285936588664   -8.85402080874417
H          -2.52909475641307    7.92652248103418   -8.71341563553664
H          -2.98179343254678    6.41892744258152   -7.91236273983200
H           2.08188127092258    5.10685335028317   -7.41200892356318
H           0.54754490234257    7.46239405547085   -8.64603008812636
H           1.73328592327694   10.31060366806217  -13.29226788147177
H           0.04235927136554   10.07832407662545  -11.40622887049222
H           5.18061486805459    3.97868985787011   -7.60843707828566
H           7.01504260178249    4.52655906035098   -9.30563787359296
H           7.25932229597772    8.64126787904078  -15.18313045610292
H           6.64745031205259    2.42472521156976  -11.99058559288107
H           8.63656565143113    1.07111762828205  -12.56934997635675
H          11.00213757985463    1.96527484755707  -15.23984688991351
H          10.47109351821438    0.68304575335227  -14.13997653657681
H          12.06124319257660    3.16584097185540  -13.32758463221032
H          12.71624014401054    1.53369094857150  -13.49507830611494
H          11.53555823430849    1.88908733961102  -12.22982713097973
H           9.98457990525694    4.21894211000332  -15.12970213473798
