126
 SCF done       -218.760906260083          0.000320655644
C          -2.53638573690850   -0.57302896681509    2.70053345668652
S          -3.46007571593846    0.65483527242256    3.44834113944703
C          -2.88161458591145    1.84855209892301    2.31560560286872
C          -1.99163017551431    1.28339314346050    1.42387889775031
C          -1.81515830975010   -0.11049853444002    1.63501848860426
C          -0.99084421617278   -0.95098106134192    0.75006882141740
O          -0.78781212049541   -2.13012322278987    0.96616147876223
C          -0.47981053784679   -0.24607217064361   -0.44346259265000
C           0.11729400579424   -0.98940068422925   -1.45846616918639
C           0.59556054491507   -0.37338154937105   -2.59907620869814
C           0.51278197760515    1.00732360792725   -2.74878786051497
C           0.98124362521758    1.68811267808555   -3.99979646149230
C          -0.21184029989643    1.98930893775307   -4.91042179837737
C          -0.05866018628965    1.75281762843195   -1.72588942625865
C          -0.56430781857603    1.14706277420381   -0.58470659429055
C          -1.15476888759635    2.01351396885959    0.45785247155333
O          -0.89936556169490    3.19716604960653    0.54956816569578
C          -3.40513172963780    3.17359902188583    2.20789454172427
N          -3.76018613989373    4.01699630813675    3.22778318908928
C          -3.67590073964022    3.76013225788233    4.64421914046597
C          -5.00454233815013    3.25562868535942    5.20165505370716
C          -4.21175885421983    5.25832463076959    2.73393719158413
O          -4.54786913232551    6.17871570061423    3.45687132531273
C          -4.15080841689207    5.12078260174999    1.29893411594236
C          -3.65207409351384    3.82555910620454    1.01218235775906
C          -3.61853877589761    3.65577353560945   -0.42474348338887
O          -3.28783373102838    2.71964365665266   -1.12494257505507
N          -4.10526774195982    4.87358476046646   -0.92134670941262
C          -4.14348642798660    5.14279932606885   -2.33901672182715
C          -2.91314995848624    5.92349876410634   -2.79333518010012
C          -4.40569235472775    5.76373783265055    0.08588817556361
C          -4.87231216888259    7.07578567180113   -0.14565805598183
C          -5.07952144613716    7.95943318731401    0.87160192707374
C          -5.51459341147329    9.28248324877534    0.64133405246009
N          -5.65620115866391   10.22109068170066    1.63391769149442
C          -5.33477009599202   10.04460984050218    3.03013754868289
C          -3.83198747336882   10.14015755521856    3.27916939465083
C          -6.09160283719413   11.46216625333344    1.13386087498555
O          -6.30563087048395   12.42932356978486    1.83215627377226
C          -6.22457229712992   11.24117351361332   -0.29310079943832
C          -5.87849163167279    9.89547118196776   -0.56185671422451
C          -6.08819196773308    9.65427614897296   -1.97082651357982
O          -5.91905687950382    8.66719450975524   -2.66548488100067
N          -6.58056228891309   10.87160548567141   -2.46278648048694
C          -6.85953805516978   11.05908033133088   -3.86506379638893
C          -5.75022107178945   11.83653348779052   -4.56912029048404
C          -6.64477577173630   11.83719663111623   -1.48028113777861
C          -7.07839797420963   13.16469370027425   -1.70631526502514
C          -6.85766884672611   14.16849627428276   -0.81802532896530
C          -7.30155874890637   15.49758736603463   -1.01257770934839
S          -8.52956505624019   15.90229335308343   -2.18679668305129
C          -8.49412580189994   17.56788738655191   -1.72929607704688
C          -7.61556040420434   17.79259002893611   -0.68151452099812
C          -6.90457240310201   16.62888261405213   -0.30238601987689
C          -5.78113540209258   16.67414466671972    0.63899213680932
O          -5.06528577774516   15.71918685807048    0.88021802810109
C          -5.51503869353239   18.01265700001079    1.21445405322113
C          -4.40601508588944   18.16932105138520    2.04235773787373
C          -4.10089274689679   19.39854581079715    2.59142764276858
C          -4.90136021741683   20.50901007179876    2.33740290744075
C          -4.59881174748433   21.83359663145107    2.97265196319377
C          -5.29017401872003   21.93435203831514    4.33452934713932
C          -6.01751115028065   20.35047993083674    1.52827601727015
C          -6.33075464782284   19.12195821348780    0.95840327412137
C          -7.54550376318734   19.02184047119865    0.12022457685789
O          -8.44006691278481   19.84614037482897    0.17689985681164
C          -9.24500982623094   18.54464230635719   -2.45976564768672
C         -10.49177968575427   18.22100221311948   -3.02925080952213
C         -11.28510904618690   19.22822628630400   -3.66841015696821
N         -12.49550843181830   18.90641637453586   -4.19015302560442
C         -12.89044918730874   17.67262870241354   -4.08824891555454
C         -12.10036567029710   16.67582006269593   -3.46376888377678
N         -10.93702116679891   16.94815096309928   -2.94884809943168
C         -10.82776414867188   20.54101715987241   -3.74205561873868
C          -9.56647782096865   20.85683664469906   -3.24636903463855
C          -8.74353879518984   19.84904639878287   -2.64487797741697
N          -7.46986916292718   20.13547475219764   -2.29871595619222
C          -7.07379313224827   21.36898613827997   -2.39677668526616
C          -7.93558201309089   22.39496392391146   -2.86060359970463
N          -9.12248707763385   22.13708845349888   -3.31747156426986
H          -2.57278156848336   -1.57924479975226    3.06943668925951
H           0.18926669570067   -2.05974282550129   -1.33249071946801
H           1.04246449711540   -0.96914521606472   -3.38219731736964
H           1.69317639954536    1.05260215696724   -4.52955107442231
H           1.48026777688157    2.62462667912061   -3.74216938250683
H          -0.70418474206629    1.06556222811877   -5.20621611824392
H           0.11722901183853    2.51098539397638   -5.80590640747302
H          -0.93711613113113    2.60987527932141   -4.38970876715429
H          -0.12998095138964    2.82770539368505   -1.80213215674792
H          -3.42110346143867    4.71014587960330    5.12315761104424
H          -2.87687417731406    3.03864225397938    4.82953691104614
H          -5.77662057038652    4.00404732909445    5.04235193226442
H          -4.91000528385584    3.07210405304602    6.26793213532950
H          -5.30379808511047    2.33148360644957    4.71255361902001
H          -5.05615833159403    5.68985125570875   -2.58636983857929
H          -4.16498011477131    4.16632991645685   -2.83127221670386
H          -2.88754787597524    6.90521726652054   -2.32683156568644
H          -2.93702171355971    6.05145272594917   -3.87181708305605
H          -2.00907049991797    5.38380480343041   -2.52086962829375
H          -5.05540734944079    7.38518122512326   -1.16452522624588
H          -4.89407772262209    7.64979960798286    1.89002015442651
H          -5.71794780057914    9.08201575986094    3.37720095189461
H          -5.84889987256985   10.85001874679380    3.56194882545186
H          -3.30240905688565    9.35213328703282    2.74905921164739
H          -3.63162527463470   10.03744392476763    4.34167043548991
H          -3.45799244587023   11.10448786172173    2.94313471368042
H          -7.82156234605463   11.56661091022723   -3.98201165047402
H          -6.93604943964947   10.05554443573849   -4.29329306402651
H          -5.62983576364362   12.82415505027892   -4.12956569839215
H          -5.98986075607271   11.94795519848710   -5.62303518323431
H          -4.80811536418507   11.30103579529164   -4.48103798319796
H          -7.58212224328314   13.38537481108297   -2.63874558194656
H          -6.29377643390984   13.98222724592539    0.08708763465640
H          -3.79349688963571   17.30207143611341    2.24008007414003
H          -3.23224396060283   19.50292315426592    3.22564130858316
H          -4.95152282395704   22.64237880969949    2.33017818777168
H          -3.52084217041752   21.94393681200779    3.10641977610123
H          -6.36710845674548   21.83765809435758    4.21878576283341
H          -5.07420400678698   22.89348258872804    4.79883578411871
H          -4.94426233388309   21.14225541510864    4.99468763157150
H          -6.66868407019230   21.18753211677081    1.31949598471740
H         -13.85722825484396   17.43346366026464   -4.51077324221873
H         -12.43556910536706   15.64978334486276   -3.39748372296158
H         -11.45186271727519   21.31024774370066   -4.16631986370337
H          -6.04231880797709   21.57169583017330   -2.14080969778524
H          -7.60908698346104   23.42566207489458   -2.89815303392632
