106
 SCF done       -186.370495877394          0.000485162548
C           0.36080662574289    1.79118160752667   -0.08532289208651
S          -0.79052059819257    2.93717131450562    0.42959148725085
C          -1.53727053933371    2.98769465043862   -1.15151246313339
C          -0.89169405327843    2.12127574524622   -2.02499987262571
C           0.20330392946719    1.45209119922172   -1.39842696485737
C           1.08916708587243    0.49903953457477   -2.08202755475386
O           2.00168299107135   -0.06867638661586   -1.51099795241626
C           0.79058032288326    0.30729694486623   -3.51203070589122
C           1.62693038802666   -0.50818763169623   -4.27106113771280
C           1.38493432659391   -0.71268329228455   -5.61452841126321
C           0.29289323382099   -0.11392090516060   -6.23719381044580
C           0.05167628563750   -0.29235072625097   -7.70590182154491
C           0.76638690180118    0.80823013967682   -8.49428494818502
C          -0.54341431874419    0.69374860770759   -5.47939752364696
C          -0.31190311418644    0.91617480521596   -4.12599402190939
C          -1.26814364166445    1.79111002684773   -3.40290270695001
O          -2.29314172209727    2.17066724648675   -3.93904068126762
C          -2.61559006879666    3.90677419544969   -1.32629794199070
S          -3.34091872548385    4.61579852319175    0.09907035868043
C          -4.40245550668895    5.61165696012331   -0.85367711926063
C          -4.18657981556996    5.38215684738094   -2.21649771204976
C          -3.18616208519382    4.42575538040430   -2.46297970703262
C          -4.89056685400794    6.06087507298677   -3.30511908927478
O          -4.63375417945076    5.90371909953392   -4.47278819641677
C          -5.30004927598410    6.52133317625690   -0.25676678417199
C          -5.41577060136118    6.71294263172649    1.08595600105250
C          -6.28869242623969    7.67661956268816    1.63898365864136
N          -6.40982167734963    7.92456899909912    2.98847647496888
C          -5.67472653148657    7.28227143342608    4.05033487807993
C          -4.26264339405556    7.84701549704908    4.18703965778499
C          -7.31629663874064    8.96273266714009    3.25547224077022
O          -7.57777129319924    9.35169553337736    4.37847126976901
C          -7.79362464588529    9.36630487084887    1.95273874105353
C          -7.15194168192490    8.55501100988285    0.98418318727862
C          -7.62530262480538    8.95919865506438   -0.31904375995715
O          -7.36326822175525    8.56237553036775   -1.43999165624654
N          -8.52293664337761   10.00388781031029   -0.05597835455158
C          -9.25045096993540   10.64873119271217   -1.12206851219440
C         -10.68899412077416   10.14574841872747   -1.21339578790184
C          -8.63326180345393   10.26428979021751    1.29272265632533
C          -9.42999371181268   11.30367064221638    1.82824102542166
C          -9.50656517493643   11.54661721957027    3.16372400098628
C         -10.24038587220817   12.61102947100463    3.74448954398842
S         -10.20787587171900   12.82021812875278    5.47640175952160
C         -11.20562385121298   14.24040165176256    5.39132125646846
C         -11.54909381887067   14.51764363486140    4.06155523584262
C         -11.00354890394422   13.59653352160483    3.15451471427690
C         -12.38110932598636   15.63201267340219    3.61576879610509
O         -12.67116969416374   15.83411905951939    2.46141691556194
C         -11.56182345813798   14.98083065150150    6.54317199758265
C         -11.22431340519421   14.61337912962982    7.80301943777251
C         -11.48661528644021   15.29633551064210    9.02289249700270
S         -10.97626900940143   14.41416766866638   10.44891082301198
C         -11.46532441705832   15.67234415524566   11.48234244370820
C         -11.98377082829041   16.73477616316260   10.79573489518819
C         -12.01593979574949   16.53727044921483    9.38099268027125
C         -12.56589861695756   17.58304931067100    8.51516915853280
O         -12.77097923477890   17.45397895399023    7.31767069690727
C         -12.88732367464099   18.86377306117403    9.18569535443527
C         -13.27781418873524   19.93652295030116    8.38568481289964
C         -13.59021424289075   21.16071143519255    8.94179950274980
C         -13.53044719604139   21.35424737451030   10.31943382984729
C         -13.90905069250612   22.67041390684174   10.92913985366393
C         -15.40460608780636   22.69236561566929   11.25482913569455
C         -13.15716589225907   20.28455731908537   11.12018373965119
C         -12.83093786891289   19.04870558386998   10.57283765346815
C         -12.42832739760755   17.95636721999491   11.47873792143122
O         -12.43920595719733   18.06131509867696   12.69091252014644
H           1.10634019514125    1.41618590528747    0.58802898767532
H           2.46768548628134   -0.97288567120203   -3.77753238966688
H           2.04506107915573   -1.34619860925391   -6.18918935592922
H          -1.01851380974117   -0.24458301452964   -7.91332282644595
H           0.42366531910704   -1.26669470460574   -8.02808872557288
H           0.39772557952898    1.78688738274019   -8.19648477109060
H           0.59389429662106    0.68156528608919   -9.56006214103099
H           1.83768850635536    0.77385790092238   -8.30871016484871
H          -1.40224923481955    1.16974549006066   -5.93080832330894
H          -2.91309166438579    4.13245169923155   -3.45967954398983
H          -5.69080051096078    6.74965734981258   -2.98429933435384
H          -5.91454556785486    7.11080947050350   -0.92330442895966
H          -4.80914311902501    6.12209339118403    1.75905514831331
H          -5.64750837409282    6.20329000783038    3.87501657190532
H          -6.23682143354659    7.47732373307443    4.96805782201055
H          -3.69546751714233    7.70711368432729    3.26946576456177
H          -3.74316942213236    7.34684345944465    4.99960375912312
H          -4.30977754811579    8.91078806029786    4.40649900393500
H          -8.71614293017646   10.40137292820536   -2.04369961293422
H          -9.22448909094763   11.73305577487650   -0.98156171718340
H         -10.69605405617448    9.07486773450103   -1.40112215721840
H         -11.20197494505720   10.64495536894370   -2.03065751208222
H         -11.22993198718668   10.33838729989350   -0.28943792703582
H          -9.97234635671567   11.92957088869166    1.13542060361707
H          -8.96393508696918   10.90661540227778    3.84729557940709
H         -11.17687512777766   13.67833781472646    2.09683533785768
H         -12.74065139392479   16.29806479978699    4.41857545819441
H         -12.12513781038079   15.88880517233306    6.39075785471875
H         -10.68677341888673   13.67945896497389    7.93302513390450
H         -11.35001867376394   15.59719325678651   12.54601035121279
H         -13.32488891429946   19.78564737110901    7.31735742974631
H         -13.88210310897872   21.98047292192820    8.30138359010339
H         -13.67931256548225   23.48062340321555   10.23450628182810
H         -13.33963178458307   22.82981741713049   11.84638016082723
H         -15.99232121278949   22.54657425845464   10.35126604467859
H         -15.67982716724999   23.64590759352792   11.69848387220067
H         -15.65068603679770   21.89839280136268   11.95604553042986
H         -13.10495143465544   20.39076470694959   12.19435592143061
