118
 SCF done       -214.966172987531          0.000763995179
C           0.29679501139663    0.40788000831661    3.02924071647960
S          -0.36065304855218    1.65236160224031    3.99558718870833
C          -0.51429305980439    2.71080347317777    2.61687118939548
C          -0.04573731632299    2.09305352665892    1.47357613285668
C           0.40040213939577    0.76607430163436    1.71361315365030
C           0.86729106656210   -0.12510891971471    0.63749343108594
O           1.31932945558480   -1.23258426804671    0.85332568216076
C           0.68690893445184    0.42812957071917   -0.71963844097141
C           0.87507357753356   -0.41106227633867   -1.81510992020843
C           0.69443484206568    0.05645679155863   -3.10211673539178
C           0.34061498584001    1.38247251417085   -3.33342242021829
C           0.07976985442736    1.88137587256629   -4.72256556301952
C          -1.41075746478322    1.75215903069678   -5.04735264385471
C           0.18106798158617    2.22832315743442   -2.24356690686325
C           0.34034352699197    1.76913718660587   -0.94334786985189
C           0.16356734553747    2.73382215552887    0.16356758870022
O           0.26569963212857    3.93411233170825    0.01397919317233
C          -1.19045207655904    3.96885812902877    2.65326443021674
N          -1.14991666773464    4.89705928039273    3.65852661114933
C          -0.41380208840643    4.82290613714225    4.89653753669065
C          -1.28576540473148    4.30078709958494    6.03570500768944
C          -1.92728672220316    6.03690612121944    3.34178778042869
O          -2.02057740860498    7.00604519321413    4.06612090878988
C          -2.49407098491114    5.72660227492441    2.05184501776686
C          -2.02636041712920    4.45401425557392    1.65706108442978
C          -2.61938313476449    4.14435718716626    0.37438717387193
O          -2.53114997758197    3.17349600810501   -0.34839215567212
N          -3.40504518139031    5.27391594927736    0.06809917657272
C          -4.15446982857210    5.30554170372648   -1.16569064721205
C          -5.61837450702101    4.92438680580175   -0.95721409971425
C          -3.33749384959487    6.22887572140156    1.05885785227915
C          -3.91208963521850    7.51754564130674    1.15318264136158
C          -4.80755700095349    8.12320602011019    0.32345030649901
C          -5.34072904093797    9.42956319310039    0.40348839576844
N          -5.01365658185421   10.49511356837696    1.20748901660321
C          -4.03253887410210   10.56587717874844    2.26491529862334
C          -4.57328123764237   10.01791592184409    3.58369155847542
C          -5.79199227031942   11.63526035349651    0.90663757283109
O          -5.65786943476948   12.69668435595320    1.47691256059918
C          -6.66605797829714   11.21108583201967   -0.16824883243451
C          -6.35823113742006    9.86809070001898   -0.45226181679087
C          -7.21741292529671    9.41297266135957   -1.52386050797168
O          -7.30441397925588    8.34494104200230   -2.09529856986955
N          -8.01505685803993   10.53152513661808   -1.81397099209174
C          -8.99654413345559   10.49883078247619   -2.87124520161368
C          -8.51162667985023   11.21872748275463   -4.12737703261952
C          -7.69985885995658   11.61718842163848   -1.02396090303833
C          -8.34991641642415   12.86085329264661   -1.13303561621652
C          -7.99717262903527   13.95327142037667   -0.39391386902532
C          -8.54089387194820   15.25458626334051   -0.53396839831413
C          -9.41806625510464   15.67042546492273   -1.57615043698339
C         -10.03853165933073   16.95811706791285   -1.53295486554255
N         -10.90341786754369   17.32916451565169   -2.49778037731977
C         -11.16366707344745   16.48784605099146   -3.45895255846369
C         -10.52939796021402   15.23369863803877   -3.52401403447675
N          -9.67175999291880   14.85266973138561   -2.61566050591699
C          -9.80974953019104   17.85800513871072   -0.46312354727210
C          -8.80524992090762   17.51600728750276    0.47676981268859
C          -8.19479156835298   16.22539734856820    0.44743608401466
N          -7.30598192408852   15.89304404744616    1.39752171205808
C          -7.01308680880399   16.75828232600625    2.32560002727455
C          -7.54155157254433   18.06418548561915    2.29538674715273
N          -8.40483057589310   18.42413632803714    1.38613865688341
C         -10.52808293610621   19.08175139673378   -0.41595335237147
C         -10.77736689499655   19.88561509324504    0.65449510945434
C         -11.10400779530933   21.32631025027127    0.42343003212896
O         -11.38810939714582   21.84511840453702   -0.62908469178394
C         -10.94893938769395   21.94957620625152    1.74624976202064
C         -10.98595407683729   23.20362898891324    2.27491867299383
S         -10.68497053025310   23.15348349111858    3.99745915240791
C         -10.52513829946598   21.43327761040164    3.98170967289571
C         -10.68538412941668   20.93705524490406    2.72719074676535
C         -10.70270822816737   19.63865980344576    2.07962942291739
C         -10.85258643766915   18.44640042206389    2.74204606189740
C         -11.08051308505753   17.21131178825118    2.11101800268075
N         -11.27951803602652   16.18419591852999    1.63616119307755
C         -10.79900581127565   18.37435735642844    4.14699852406845
N         -10.73012718161928   18.29811606071791    5.29052023370161
Cl        -11.27297815438585   24.66984474321800    1.47530888517799
H           0.56850567639741   -0.53307239607270    3.46606985244669
H           1.15757416298949   -1.43687136924407   -1.62934127161626
H           0.83096390569939   -0.61258363074474   -3.93952601792901
H           0.66026874263947    1.30365581753942   -5.44413903528938
H           0.37497993029032    2.92915878691743   -4.80032622376625
H          -1.71873282399357    0.70997304997020   -5.00433493722541
H          -1.61621544058311    2.13512973015111   -6.04391468951820
H          -2.00235712069385    2.31255339798802   -4.32748940225884
H          -0.08327695293554    3.26575803290758   -2.38554767274618
H          -0.08870898913244    5.84099727985373    5.13029986887816
H           0.46458848753005    4.18941624104667    4.75505760109078
H          -2.12705476144762    4.97158284092021    6.19010799386401
H          -0.70387575087560    4.25361796351316    6.95145453082620
H          -1.66486351598085    3.30662607643397    5.81049486315951
H          -3.68066068050771    4.56745693893556   -1.82003702361460
H          -4.05974155916724    6.29110446838794   -1.62660148036976
H          -5.68896322673309    3.88689212656613   -0.63961243770338
H          -6.16498107453989    5.04621030782677   -1.88780105923285
H          -6.08561946890682    5.54934111651732   -0.19998492166664
H          -3.56610899171563    8.03138737014721    2.03745606650744
H          -5.22614339355170    7.58055711468046   -0.51091985855534
H          -3.80044471333037   11.62831766374387    2.38683669972126
H          -3.12442345071310   10.04360104141997    1.95666305138807
H          -5.38321330660984   10.64891065739040    3.94146729708968
H          -3.78135311303918   10.00472344787157    4.32687082999097
H          -4.95161602980249    9.00518647449456    3.46597684410513
H          -9.93411601808033   10.93352628589356   -2.51346745974015
H          -9.16012447682675    9.44040013630798   -3.09389043745565
H          -8.32668943595392   12.27145138630545   -3.92750371464875
H          -9.26270848783118   11.13598355432006   -4.90822723138925
H          -7.59036223870420   10.76416725077692   -4.48367187405045
H          -9.15186592189477   12.95389899706938   -1.84846579588652
H          -7.23927517150759   13.86028388439046    0.37525291080966
H         -11.85279644531787   16.81821415567335   -4.22379650505711
H         -10.69461731355728   14.55515347685615   -4.35012070998980
H          -6.30217129565535   16.44604938251054    3.07681960973027
H          -7.22111916495549   18.82722577826756    2.99166857007806
H         -10.86227171707162   19.45535558458063   -1.37884178451766
H         -10.31682543325936   20.91623017552283    4.89720575037175
