122
 SCF done       -221.815417809970          0.000450642903
C          -3.22085646360367   -0.77985762862482    8.09033393590046
S          -3.56841073317054    0.84940511605997    7.70022179103528
C          -5.27883663074539    0.52169041298158    7.66532555418262
C          -5.53244591607388   -0.80238292394486    7.94151064152099
C          -4.34738263591038   -1.54747128002929    8.18805636355895
C          -4.37119056186579   -2.97716101639032    8.53151135102320
O          -3.35946277590036   -3.63406664320190    8.68200873679114
C          -5.72891462392781   -3.53877220029245    8.69756953253452
C          -5.85017647724745   -4.85390373172987    9.13974965356095
C          -7.09215580756025   -5.42923683303778    9.32553809034896
C          -8.25443924618508   -4.70762703426910    9.07051225447928
C          -9.60655104560386   -5.33511738328370    9.22994992571012
C         -10.08135506751856   -5.91411362052474    7.89478239155202
C          -8.13647597163971   -3.40173127195269    8.61398348120782
C          -6.89508036780745   -2.80563886776085    8.42697233049944
C          -6.86484808547049   -1.41275096662863    7.92920849115826
O          -7.85579630425544   -0.83602628527436    7.52216872785026
C          -6.22950347048053    1.57184872386363    7.41796033738528
C          -7.22974358620577    2.01224584071408    8.24942725224530
N          -7.58233146331432    1.51022859364015    9.51977867954387
O          -6.89643892172780    0.63012729572324   10.00964021050440
O          -8.54914126220565    2.00818689875711   10.06430048801777
C          -7.89064333395770    3.15051693012354    7.64512278001347
C          -7.27217443382244    3.43866361919765    6.47878879054343
C          -6.22927565954306    2.46799011131685    6.25209267803366
C          -5.47745975023621    2.28297460209664    5.11453221031689
C          -4.90045159644833    1.04654939976478    4.67760820587001
C          -4.44052936255166    1.20579296284172    3.41103823892251
C          -4.65742173854915    2.56321683278779    2.99085212009497
N          -4.14713823528356    2.99356317773941    1.75460579100115
O          -4.42000124914316    4.11118380226084    1.33889872296743
O          -3.43926440607354    2.20990325376132    1.14571562600076
C          -5.28164454601970    3.26786799540897    4.02625436719354
C          -5.54586165130996    4.63596273426171    4.23776698593841
C          -5.75965014443974    5.59957217195082    3.28820155283899
C          -5.99726963393592    6.94309650391223    3.62336650108159
N          -6.21584426029527    7.92707833263587    2.69147407839644
C          -6.16783558128630    7.77904528443967    1.25388338775219
C          -4.74260717157308    7.61179283140514    0.73523871459663
C          -6.45263731487410    9.17433144550335    3.28449647815768
O          -6.67177331477415   10.19116173240312    2.65847403444568
C          -6.37772394363671    8.91499059679982    4.71173783495582
C          -6.09191559714890    7.55206652047659    4.88975159230443
C          -6.03223609626286    7.28945143817855    6.31608280282357
O          -5.81829554634056    6.27241094540997    6.94409035805086
N          -6.30185293020753    8.53162773373898    6.91023087427210
C          -6.28061336288593    8.69479280217900    8.34558318762127
C          -4.97558006420598    9.32389407994576    8.82545681283921
C          -6.50904946728322    9.51826082141238    5.97689207608084
C          -6.82495643630117   10.85097099263383    6.29319672639800
C          -7.03237292526056   11.80441006062170    5.33352436253410
C          -7.38458290220516   13.14382780419421    5.60143806122533
C          -7.59481119194786   13.77227668243545    6.81700269088331
C          -7.97207040304829   15.12319504786106    6.58669811604153
C          -7.96217450874204   15.30978680084958    5.12209038942719
C          -7.61137833779129   14.12958869755366    4.55166780862107
C          -8.21892135963658   16.49474896916696    4.41958185540316
N          -8.39468073650991   17.44629894316155    3.80136217225404
C          -8.31116280782738   16.06802957008516    7.52846669860338
C          -8.78881028446736   17.38780603152525    7.28871075889690
C          -9.03527041762491   18.00263900319239    8.49227948325647
C          -8.68117794009943   17.06925709415868    9.55574444784655
C          -8.26640254028751   15.90419709778405    8.99535436014459
C          -7.85411038130334   14.76599374143924    9.69445293442702
N          -7.51786441561140   13.83796951717859   10.28335318656429
C          -9.50809922999950   19.32315699955257    8.74263550427775
S          -9.15171958998831   20.04878518846228   10.29490387849167
C          -9.86833174988501   21.52144384815235    9.83113451521542
C         -10.37265879471318   21.48128442131630    8.55893785944786
C         -10.18593270796537   20.21992494574057    7.92821848044059
C         -10.81056467334482   19.93780506916616    6.62544717252755
O         -10.95569317767564   18.81727057055055    6.17626158594635
C         -11.30865436629421   21.13211233989762    5.90903346639966
C         -11.70213799973231   20.97920437256557    4.58155044955665
C         -12.18457699804267   22.05277897409774    3.85912414522125
C         -12.29910985607659   23.31128903402372    4.44356900580153
C         -12.87248514298230   24.46553221514812    3.67799900229638
C         -14.39070610751526   24.52037027143055    3.86647324639035
C         -11.91766446233025   23.46314889650400    5.76954441886371
C         -11.41694804285412   22.39571438900559    6.50682933351531
C         -11.02130572260534   22.63152273728942    7.91043776497908
O         -11.19272407960915   23.69133820580975    8.48071395084739
H          -2.20797234585286   -1.09909740213909    8.23944013427394
H          -4.94490572783009   -5.40907225276147    9.33694096667632
H          -7.16359812281750   -6.44855422647241    9.67665386316431
H         -10.32225100646825   -4.58470997835012    9.56990010342679
H          -9.56170353738594   -6.13209019289960    9.97418232700090
H         -10.14273456210668   -5.13082120334828    7.14304398953555
H         -11.06383277134805   -6.36563132201253    8.00742876642626
H          -9.38765319160577   -6.67422951269958    7.54237116166805
H          -9.01727453963673   -2.81343603786959    8.39978490798580
H          -8.73093044303514    3.64569042079876    8.09222339939654
H          -7.56877043174239    4.19059323047433    5.77575064100907
H          -4.94023217489284    0.12410291186463    5.22147566607413
H          -3.98478602738430    0.46418170125794    2.78233620556758
H          -5.59367471704409    4.93327249955082    5.27790133208770
H          -5.76645448882373    5.33537099480484    2.24383280984866
H          -6.60495926827560    8.69612481165115    0.84907390609653
H          -6.78729236202218    6.92991466998124    0.95370082784139
H          -4.11615003019544    8.42632040118496    1.09088240003621
H          -4.75201407552119    7.63142933072146   -0.35057248707606
H          -4.31279964789386    6.66663226206363    1.05539533561052
H          -6.38140896285312    7.69042466359599    8.76572722378101
H          -7.13937083224512    9.29482929187855    8.65732610765860
H          -4.13374652620550    8.69344208673832    8.54959241479460
H          -4.99502252447467    9.42413444367612    9.90666470406501
H          -4.83045391116718   10.30864511750454    8.38703275939690
H          -6.91594744768439   11.11642122635160    7.33623452969192
H          -6.93331863392094   11.52983936487188    4.29113723964127
H          -7.51367635919477   13.32782167232646    7.78879428828649
H          -7.50824405867146   13.92634175142058    3.50183752712796
H          -8.94282194487447   17.80720057384367    6.31631008380076
H          -8.76226177515148   17.28279951340131   10.60600979327608
H          -9.89108426334686   22.35774672177964   10.50236764739248
H         -11.61209312186834   20.00102684558079    4.13290146683005
H         -12.47615193112011   21.91614121514078    2.82793417417262
H         -12.64469975756203   24.35645646914967    2.61615869681812
H         -12.43281233533855   25.39948241257740    4.03182807322239
H         -14.85098441897075   23.60149452864512    3.51038417924349
H         -14.80958648266089   25.35646837860638    3.31224765296577
H         -14.63729972555442   24.64211923221772    4.91857877559263
H         -11.99763741473236   24.42332099477226    6.25901154924690
