98
 SCF done       -206.269070911344          0.000772327706
C          -0.31460705822837   -4.59288842003182    2.80959014147172
S          -1.36429402500294   -5.04978306446323    1.55401510453142
C          -0.31968827062369   -4.40061289368616    0.32868354540844
C           0.80787920334027   -3.81979073122798    0.91056730285786
C           0.80681978682249   -3.93776176697229    2.34076814212856
C           1.88049914985619   -3.40668388696125    3.09037834299959
C           2.89396369964865   -2.76826298628062    2.43795597784235
C           4.05128369749859   -2.18500874926004    3.20234802998032
F           3.96946836052099   -2.43049085920498    4.51962212581245
F           5.23376545115257   -2.66978210426367    2.80036380565687
F           4.11667949857232   -0.84746218255436    3.07619743140315
C           2.87402428593954   -2.60398505255622    1.01931891733758
C           3.90875127995354   -1.88965281099297    0.36900251454198
N           4.72204681593723   -1.30180546955196   -0.18277034883247
C           1.84227283240594   -3.11717907970107    0.26890139262120
C          -0.63848022613679   -4.55338509931530   -1.05355809621696
C           0.16656418993814   -5.04516330813182   -2.07232266111856
N           1.47568022337186   -5.54989235070789   -1.98405276320202
O           2.01533104227691   -5.58910167307087   -0.88815268878218
O           1.98931511144635   -5.94734978916095   -3.01494412998503
C          -0.60806021477901   -5.13415966562674   -3.28013639589796
C          -1.88272666506157   -4.74958204784227   -3.00942780373963
C          -1.96384353847081   -4.34586761291810   -1.63482122205365
C          -3.02203772253110   -3.69866063817021   -1.01386162877537
C          -2.92972282667352   -2.73672248915377    0.02506656154982
C          -4.15575039155211   -2.15658643682551    0.19248954011892
C          -5.09690178373912   -2.75441590955439   -0.69598003534035
N          -6.43488953323050   -2.33864086831999   -0.67681551110255
O          -7.18519201928687   -2.66308850726913   -1.58805278747461
O          -6.78421171518793   -1.64158766050252    0.26158823216300
C          -4.44059075549811   -3.75043576633384   -1.44490864030347
C          -4.88248107053331   -4.80034165770301   -2.25453559991139
C          -6.10839169275460   -4.95977302694364   -2.86703837646126
C          -6.45401545329594   -6.05092340550556   -3.65928149012433
S          -7.96604612920465   -6.02208850620793   -4.54824697284498
C          -7.71080477132197   -7.57579882176606   -5.30454979375247
C          -6.48720584431387   -8.11956505657295   -4.85168421954409
C          -5.80278622572112   -7.26449311332747   -3.94770019164356
N          -4.65478819662082   -7.87696574559687   -3.57104710415748
C          -4.58348448792795   -9.09664043973440   -4.20504081486028
C          -3.50897531231323   -9.97612244874605   -4.00668179416779
N          -2.63711329838832  -10.70300282842748   -3.84453027482762
C          -5.69562393500270   -9.27641211419846   -5.00510423125623
C          -8.65595067658939   -8.04663546650946   -6.21555800731326
C          -8.58703756919172   -9.24185110712491   -6.89016801476263
C          -9.52535721798466   -9.66687053048358   -7.84392858536450
C         -10.64932530978293   -8.99977521339014   -8.32720891150788
C         -11.27665114514129   -9.79269621980768   -9.30966678641202
C         -10.48073468525762  -11.03105469040412   -9.41330855407358
C          -9.44428312835974  -10.94078415934640   -8.53988646285561
C         -10.73390656910933  -12.11826006002513  -10.25691854443897
N         -10.92350127341467  -13.02115407516948  -10.94133925889297
C         -12.40141186759226   -9.48020596389201  -10.05833860360163
C         -13.01058962023767  -10.25571736094112  -11.06658898898391
C         -14.10030876141036   -9.56752359155518  -11.58147449535456
C         -14.19630974341670   -8.30180431649671  -10.86822592332878
C         -13.19107887170328   -8.23399318828369   -9.95864707969936
C         -12.95929348112455   -7.16235435085275   -9.09048798056022
N         -12.79040017238628   -6.26767551290865   -8.38945399801479
C         -14.98975374309897   -9.94520418861544  -12.60850080890743
C         -14.91583279284260  -11.11261294287339  -13.31225052860057
C         -15.80155360045103  -11.47524565012488  -14.34319036265717
S         -17.12295016799886  -10.45307456257871  -14.83463448859455
C         -17.63763767695040  -11.54177779483691  -16.03078287786681
C         -16.84556336075450  -12.67506715520442  -16.08843425676909
C         -15.78653039206921  -12.64639972276532  -15.12093740493574
C         -14.88734697870279  -13.72535559124634  -15.04788020464892
C         -15.03795190931375  -14.78438349387006  -15.90145889900574
C         -14.09179972036206  -15.95336154804308  -15.84874254281961
F         -13.15027650035770  -15.80907126642482  -14.90748229628203
F         -14.72590063374014  -17.10614553932139  -15.57833893920207
F         -13.44258546918661  -16.13199813565650  -17.01099990855242
C         -16.08922876655551  -14.81749618966557  -16.86487997084906
C         -16.22691552522766  -15.92390842845648  -17.73938538070987
N         -16.36653127737962  -16.80150109812486  -18.46112934293100
C         -16.98091897688630  -13.77642662069251  -16.95640038543095
H          -0.55661197246085   -4.83037862571868    3.82634498863257
H           1.88603536633317   -3.50908675502556    4.16434815720205
H           1.82538695202309   -2.96522212204921   -0.79870699307103
H          -0.20261791848270   -5.46196950662441   -4.21808704339745
H          -2.66879080276731   -4.63409533930400   -3.73064138077253
H          -2.02093884556131   -2.42856929761667    0.50390341219650
H          -4.40883583710376   -1.35886207079999    0.86558552588646
H          -4.13567904836235   -5.56115539790838   -2.43270669697381
H          -6.84740061112084   -4.17702479638238   -2.77030331295929
H          -3.96159423750792   -7.53735158626390   -2.92420739745816
H          -5.88330863608921  -10.14382961999959   -5.60384670340012
H          -9.50020972083755   -7.39634335829515   -6.39867539031342
H          -7.75997202509414   -9.90834180387195   -6.69499664365520
H         -10.98865481086304   -8.03071627651395   -8.02128475616627
H          -8.68195489713507  -11.68027195854212   -8.37651375558462
H         -12.66918051926643  -11.22268162013149  -11.37632099729771
H         -14.94700874138891   -7.55461821858777  -11.04904669562975
H         -15.78006577470600   -9.24384868938523  -12.84890841537971
H         -14.13072151973238  -11.81841221678610  -13.08186867810178
H         -18.49028351475114  -11.31164061462705  -16.63827375829496
H         -14.08496495135177  -13.72163000862318  -14.32702752429887
H         -17.77711181441854  -13.79866733608026  -17.68431867968324
