120
 SCF done       -237.765254511374          0.000533459576
C           2.54286655391918   -0.66741953074424    7.31705719974857
S           1.53078015237305    0.28716066718422    8.29885016908094
C           2.01294916439201    1.72416372773881    7.44372416597708
C           2.99238845910239    1.44113459827875    6.49802601655510
C           3.28706873638036    0.06783254055570    6.42928340933180
C           4.24628552515849   -0.52046695715780    5.43934124822172
C           5.23564906652656    0.52265530088234    4.90842633587221
C           6.36816340452294    0.73193127303796    5.91080904265884
F           5.96127612812328    0.94048807664379    7.16743630963205
F           7.17186279003937   -0.34139938788282    5.94858946783263
F           7.14514989552003    1.77869806604174    5.58384655911520
C           4.52888486136004    1.84986329199941    4.57065222226818
C           3.54263762933471    1.61366073811232    3.53896797250333
N           2.73846853085674    1.44054292199731    2.74692153725093
C           3.82726382000359    2.46317672647709    5.79162553983276
C           1.40207783847427    2.98875700219626    7.68106662490095
C           1.14661240603072    3.65325702453258    8.86465810130588
N           1.31445291222784    3.17474895123445   10.17049655725346
O           1.34612876649682    3.99147254129492   11.07268424634915
O           1.41195476099362    1.96589803655102   10.33362511365702
C           0.74710966637490    5.00789590605428    8.57070312526678
C           0.72398597567080    5.17938989083310    7.22417080478239
C           1.04657427034938    3.93042643567417    6.60058310026254
C           0.77076299722043    3.55512703031595    5.29814127235755
C           0.38973197201385    2.25226132364604    4.86035927110684
C          -0.06803833855119    2.34215402605766    3.57821097285930
C           0.06272027122872    3.68731026812066    3.11880189073139
N          -0.33169473882357    4.03090452230013    1.81361131166728
O          -0.66844392538469    3.12440919583583    1.07559278148867
O          -0.35075390624245    5.20906105881269    1.48379142389303
C           0.62278903655009    4.46834983816477    4.14603310765535
C           1.24409581839177    5.72360452425238    4.19083224358926
C           1.20695604871620    6.75726879391512    3.28385447634931
C           1.96598013089543    7.91438220915305    3.49510300222758
N           1.92184293090679    9.02612905023478    2.69264231590393
C           1.07214418602589    9.20990117010879    1.53783142921511
C          -0.36245113212249    9.54256205804696    1.93692533225006
C           2.77781714466636   10.04565007885542    3.14518690080138
O           2.90992283154049   11.12164073268933    2.60652084166035
C           3.40376377395509    9.47521180658210    4.32612066297339
C           2.90631958746381    8.18712406849787    4.51947493168499
C           3.58562457645244    7.63010402668355    5.67667209602431
O           3.50168698222917    6.54100449109836    6.21215720777787
N           4.44465911453395    8.64872049380375    6.11859756404531
C           5.30633565082940    8.41285728359129    7.25684572777143
C           6.73958393562432    8.10572312502959    6.83283101862440
C           4.36288285824738    9.76558062957832    5.31886313857575
C           5.04435062881897   10.98719489624392    5.35114989844155
C           5.98684793723310   11.43199423864050    6.24661517504940
C           6.63960823007302   12.66944986705805    6.16955171547950
C           7.22807166409298   13.34901716521323    7.25327598319141
N           7.40817499554349   12.89181788301990    8.56750024659708
O           7.93531238812853   13.65459941252875    9.35828954176647
O           7.04246419978479   11.75950726511463    8.85608662553029
C           7.58956928327310   14.65899292665490    6.84019359210364
C           7.23469312952756   14.82313280693830    5.52802050589572
C           6.69296743387825   13.60048414268879    5.03332115657990
C           6.48083537444667   13.29650208467440    3.69518162458028
C           6.69906746838643   12.03966931856774    3.06846281764925
C           6.65071168320701   12.21487635975016    1.71813450723742
C           6.34236269045713   13.58293790796399    1.42002815720731
N           6.21230581686796   13.98043434051587    0.08214640155246
O           6.17148278813586   13.09742450068300   -0.75728689654911
O           6.17125692119771   15.17183889714636   -0.20197154470704
C           6.19663632923361   14.28377784746751    2.62419983674421
C           5.68482467562916   15.55074562536502    2.95999569139150
C           5.45865789200330   16.61315826275998    2.12887644911588
C           4.95276993023012   17.85108678572328    2.56195794629953
S           4.53187384314313   18.17287197272080    4.23177395108008
C           4.06692389819545   19.76564128660839    3.84321986159381
C           4.21774600966251   20.06209803692973    2.51319377260148
C           4.72542074273871   18.97775278124148    1.77615102720203
C           4.95492468222930   19.02577324317021    0.29951898079031
C           4.95112437989575   20.46438416650227   -0.22996321081590
C           6.30186346567425   21.12819383168851    0.03125039798497
F           6.75426200394497   20.97982145034605    1.28421566929369
F           7.24720586600190   20.62182530155436   -0.77022870009454
F           6.26790842722589   22.45110058031938   -0.20165281157273
C           3.79622296824111   21.28360515030396    0.37828405188223
C           2.54258106594156   20.63891231575674    0.04557215785125
N           1.54881582130572   20.12965726274377   -0.19192593655377
C           3.91519252148050   21.39586450072199    1.90634123516639
H           2.57060045774002   -1.73080975894845    7.45217321219549
H           3.67470886459699   -0.91542236637747    4.59341334099444
H           4.78930580266219   -1.35569426775525    5.88752943306668
H           5.72199823127124    0.13707959765076    4.00428372458084
H           5.26117911134980    2.56441755473392    4.17544528625969
H           3.23989555531290    3.32740250490879    5.48307826781164
H           4.58304812953673    2.83336974971402    6.49216895645966
H           0.50233027947238    5.72506401085106    9.33097909688614
H           0.39121085521732    6.05745084895089    6.70743298596999
H           0.35897760525465    1.37847714673653    5.48058568208831
H          -0.47073590738804    1.55155535896077    2.97432187198079
H           1.85597625533188    5.87662400915973    5.07025405342123
H           0.58080928493902    6.69291103585160    2.40833701162155
H           1.09852462058084    8.30842084980912    0.92119538139706
H           1.50243679851123   10.04209771941403    0.97446066365744
H          -0.80503072923541    8.73011764222951    2.50800638811126
H          -0.95887074698017    9.70186331342090    1.04360471203965
H          -0.38549669873107   10.44902820583631    2.53737456691517
H           4.88692563158514    7.54379657937070    7.77204636465474
H           5.26659120824510    9.26680856888054    7.93567604984986
H           6.76806113859896    7.19127765976763    6.24491982188748
H           7.35637797720343    7.97204320495806    7.71635767841442
H           7.15796439622046    8.91375631296565    6.23752270621082
H           4.73925925746042   11.65205684884612    4.55263140173081
H           6.21172127977181   10.85767034535314    7.13266549136456
H           8.06819124731831   15.37723327030669    7.47862699945873
H           7.45986264891283   15.68262629020228    4.92684607518574
H           6.97157845228988   11.13705490226934    3.57931662066243
H           6.82343921607568   11.47521951835312    0.95917064541849
H           5.44373741865764   15.68595978380738    4.00759719584438
H           5.69290794145000   16.52339199544045    1.07835507482385
H           3.70417236460197   20.41615381383750    4.61480118147154
H           4.15812036749370   18.46526405198696   -0.19970218056819
H           5.89851919257116   18.53918589461431    0.04076330242015
H           4.84408470969386   20.44880820105907   -1.32073196639788
H           3.78289734789635   22.28778931006750   -0.06235894979362
H           2.98521981737808   21.79387466784074    2.31949199030995
H           4.71198434939934   22.10112162468474    2.15996406083014
