102
 SCF done       -193.430293221604          0.000720290546
C           6.77959085126223    0.13192635788569   -2.48989016444376
S           5.94187432955784    0.41143671157726   -1.02427949613456
C           6.00299873067115    2.13639672717284   -1.27340219090619
C           6.63775746732550    2.44040543536065   -2.45975677504554
C           7.08677896783914    1.28564748605831   -3.14524526223372
C           7.81309837672636    1.34106417718013   -4.45445141413746
C           8.42530680327812    2.72438453582555   -4.69397575861631
C           9.68804874553233    2.91394935750839   -3.85898450449359
F           9.54137419059137    2.66794034680466   -2.55255199472898
F          10.66659435915178    2.10052207614816   -4.28604176699973
F          10.16536597075927    4.16689832395556   -3.95576457137548
C           7.38995776566549    3.83016364146142   -4.41763273141603
C           6.26991749200439    3.63927739640737   -5.31547523944973
N           5.37767694680506    3.48418466072875   -6.01087870824236
C           6.88398341361283    3.82552641571408   -2.96549043892492
C           5.45417396556717    2.99737000530938   -0.27830657127539
S           5.53229572581978    4.73507548231182   -0.37076070071188
C           4.72413927478264    4.92556520882452    1.15546603427136
C           4.41330872002577    3.67399848018239    1.69242327299394
C           4.82660462826970    2.60273002454032    0.88073168941189
C           3.74685217034057    3.45969194186369    2.90869680560916
N           3.20278886493211    3.24227406906219    3.89648439508955
C           4.49630207549860    6.23487615502395    1.64001993106584
C           3.96885466890981    6.53995365762590    2.85514196894546
C           3.77671667817397    7.87535329787550    3.28163853586738
N           3.27592031766819    8.21162337346305    4.52295391944647
C           2.81691308858553    7.29696542724768    5.54069259190477
C           1.43232690078842    6.73728319076150    5.22486107078181
C           3.20472510861499    9.59680397355204    4.70162546551267
O           2.80474038619086   10.12836664059662    5.72713769810093
C           3.70213888939164   10.14857193098745    3.46706966083454
C           4.04659525561494    9.06623812375430    2.61337534219035
C           4.53870615326808    9.62092663328364    1.37481335514058
O           4.94802912621328    9.10367450748715    0.35151872791307
N           4.45108117891995   11.01257955843894    1.55553568825685
C           4.89184820031082   11.93098202126616    0.53392550664525
C           6.28071784575646   12.49070927445565    0.83105719704823
C           3.96401783724602   11.34147777209379    2.79726238743309
C           3.78553463497063   12.67851063993899    3.24448854735112
C           3.33955998249031   12.91913076496767    4.49695020358769
N           3.13882533028277   14.15154802449802    5.06077954232843
C           2.72361915637858   14.31783137759317    6.37482894912609
C           2.44283444797753   13.19140723945483    7.28541238888718
C           2.64218168260352   15.65733492283315    6.62489352831662
C           3.01276401221429   16.37985312436899    5.43460571417730
C           3.33573166324675   15.41964545124398    4.41239849651132
O           3.69444303079939   15.55202738390051    3.26535308417713
C           2.93437384407478   17.71924335038403    5.68933543258062
C           3.19952922404010   18.85894116371857    4.78823561315172
N           2.51897857285068   17.87812013222223    6.99715293403913
C           2.33163174300510   16.61917187293430    7.65162398695321
O           1.99730374249310   16.51046255216974    8.80782333052788
C           2.36850720095508   19.09028150278610    7.65822548235965
S           3.65813187559385   20.26152420708205    7.69350194314805
C           2.72259591521931   21.29399687415270    8.69274220540179
C           1.50863790861240   20.76692350562684    8.99969123354369
C           1.29889206879639   19.49160982184424    8.40911741204209
C           0.04876901812776   18.69470166936532    8.61091787211640
C          -1.10000935835081   19.56428601485406    9.12929914719993
C          -1.72310113354348   20.35534203745594    7.98317424600504
F          -0.84050887313852   20.99275895888575    7.20196469898245
F          -2.42047098899540   19.54731801787122    7.16912989187682
F          -2.58454184888111   21.29159745672779    8.41746774556249
C          -0.63341289196690   20.49089097904869   10.26759530506105
C          -0.13428858852155   19.68286765803750   11.36155429097565
N           0.26538604795468   19.06945723454945   12.23727472238830
C           0.46152205167801   21.46637698496781    9.80926064217186
H           7.00234736898127   -0.87246603367306   -2.78969503355408
H           7.10921522837975    1.13137162488985   -5.26588231202411
H           8.59061835556990    0.57423127783428   -4.48538989877637
H           8.76073749597175    2.80026930548866   -5.73548828336606
H           7.82787758338638    4.81086927927322   -4.64048995253005
H           5.96286449240167    4.41398296268411   -2.91498843702450
H           7.61660634088146    4.32275281904966   -2.32156822518340
H           4.66833751238364    1.57063659012452    1.14081026093507
H           4.78290978041444    7.03924014998365    0.97465395376857
H           3.69300532330065    5.74999459258795    3.53621638937310
H           2.77676375656998    7.87560246027308    6.46800375550802
H           3.54075826308382    6.48631060161548    5.66084475570636
H           0.71496957309815    7.54901444786840    5.12939263099521
H           1.11251001237375    6.07977403263127    6.02802175635418
H           1.44286360013690    6.16975501910281    4.29737393421654
H           4.16374947662344   12.73998107856130    0.43124568557265
H           4.91838357991135   11.35652554460685   -0.39645942667510
H           6.28204282726382   13.05409380956994    1.76112745040139
H           6.59074420705591   13.14910625235271    0.02440484389252
H           6.99898700767000   11.67849219439140    0.91407835076423
H           4.01526380600727   13.48883000445117    2.57295997407717
H           3.11537265550712   12.08722057372802    5.15151053111053
H           3.32922858785691   12.57248797986559    7.42542141843675
H           1.66467562715877   12.54302469049082    6.88260416567247
H           2.12506758299149   13.58541206940659    8.24678982638453
H           3.26034762606752   18.49705482357418    3.76550083583645
H           4.14557073616633   19.33590780497976    5.04593060234566
H           2.41392896104081   19.60888409524168    4.87376687170965
H           3.12437248098825   22.24157188479069    8.99093122912282
H           0.25488140651024   17.90292476833678    9.33825970474220
H          -0.24399298057786   18.20511655070296    7.67738132761600
H          -1.90323943992744   18.91774796255396    9.50213445344516
H          -1.48948580151491   21.06215948335910   10.64881807748123
H           0.91730153915156   21.94110719775570   10.68162686031889
H           0.00853448741353   22.25965678453861    9.20672037586411
