106
 SCF done       -185.935135041971          0.000344080878
C          -2.82970547408604   -1.42506092838449   -2.86886686141817
C          -1.65675369065978   -2.16451596755242   -2.89864006683101
C          -0.45914406086522   -1.47991490278186   -2.85477901564395
C          -0.43510928628963   -0.08297208512280   -2.77458572990947
C           0.98710760693636    0.34904070796483   -2.75208509999321
O           1.44992316969544    1.45840644988390   -2.69365897423384
N           1.72649593612882   -0.82297732514615   -2.80805212037539
C           0.94126532739448   -1.96522880487563   -2.87744918880231
O           1.36185575584342   -3.09261029118789   -2.93368917098930
C           3.17362120205862   -0.84927281192451   -2.83578824037589
C           3.70096218757702   -0.71541282223877   -4.25990806495102
C          -1.59202947062986    0.65584081625766   -2.73462895662897
C          -2.82157702846929   -0.02666218101747   -2.78642879442299
C          -4.06256477107573    0.71596104446955   -2.75350092671142
C          -4.25496481911168    1.99325315317259   -2.29492165204952
C          -5.62654988739129    2.35745538817406   -2.47157454315989
C          -6.28693210401323    1.18257540257625   -3.06732546914155
C          -5.34870133291064    0.21154806271757   -3.21916228453105
C          -7.65096680887296    1.02377053282366   -3.34175312710705
N          -8.76425579809692    0.82369191927068   -3.54061936995477
C          -6.22412682425501    3.55798426980065   -2.16977014003700
C          -7.55044601188800    3.96168514035072   -2.48537055715524
C          -7.77986606293065    5.22537092566871   -1.97257377221576
C          -6.55929169600739    5.65895020730444   -1.30680203469243
C          -5.61952767991977    4.68633224744943   -1.44127409847930
C          -4.31677235623651    4.75933879514097   -0.93498023376598
N          -3.25446687646741    4.85216039509218   -0.50838390038696
C          -9.00778151843991    5.91667978263834   -2.13989418736424
N          -9.49318543472867    6.96269437620558   -1.39970703264413
C          -8.88738143444939    7.61489107817475   -0.26228346244013
C          -8.07896142371727    8.83995214878418   -0.68339596926391
C         -10.77131352353222    7.36788756652431   -1.83583375103716
O         -11.40285808099085    8.25923973404343   -1.30904962534125
C         -11.06544143427033    6.49494995327617   -2.95165710203973
C          -9.97692867561388    5.61507664799080   -3.10734155558361
C         -10.23520326716479    4.78008383109634   -4.26615924396514
O          -9.58577717391507    3.92015188416767   -4.81631873123236
N         -11.49916512079857    5.20708985380709   -4.71972212190188
C         -12.14765171062538    4.54221097671693   -5.82451379144873
C         -13.18571146188107    3.53184210832962   -5.34292071200080
C         -12.01261184278013    6.22125966594969   -3.95073071680394
C         -13.25732528553795    6.83691636046846   -4.19238295931049
C         -13.76555384960049    7.82626058287854   -3.40037918113416
C         -15.00691649820436    8.46478481503521   -3.61893014904770
C         -15.56533452756173    9.43400192777998   -2.80679050972286
C         -16.82014460303927    9.83774775563126   -3.34414880259088
C         -17.00509559519606    9.04621664516308   -4.57709529354897
C         -15.92793441879537    8.23420205872634   -4.72573916378635
C         -18.08546459931123    9.10505746626347   -5.46502272841625
N         -18.95033282009790    9.12707397444084   -6.22087180827359
C         -17.70091258176114   10.76131233803261   -2.83369345136095
C         -18.96831027737059   11.14843435303130   -3.37415541918902
C         -19.54934393171767   12.07653791960801   -2.55080998587704
C         -18.64036977033757   12.31753888850198   -1.43878947538398
C         -17.53188469829740   11.54746042389186   -1.59950354517734
C         -16.43659010269303   11.52831620739179   -0.72932358274867
N         -15.55750963320432   11.54012378287542    0.00992380754676
C         -20.83512935326943   12.71897969200394   -2.71722754987825
C         -21.50133143678018   13.26499614715497   -1.60634126341712
C         -22.72804857378661   13.85071031754522   -1.80601872028124
C         -23.30871032937177   13.92229360475901   -3.07621142956960
C         -24.61648106686987   14.60832823123808   -2.94541292819455
O         -25.42844722121979   14.88243904599753   -3.79142427849440
N         -24.74203157540468   14.90569804709665   -1.59427806862075
C         -23.65935552117370   14.48580921726156   -0.83836210146853
O         -23.54123030107524   14.63549869548747    0.35073690344745
C         -25.91033774853212   15.54340807114577   -1.02522812606124
C         -26.95501873262613   14.51123960649516   -0.61576554491037
C         -22.66395298588836   13.39538601941085   -4.17828005167594
C         -21.43005701732704   12.79390557659369   -3.98388713194673
H          -3.77392119555459   -1.94690190100296   -2.88762869057495
H          -1.67468882179610   -3.24171434187586   -2.95539656879613
H           3.48904064380295   -1.79993344145591   -2.39939038214298
H           3.52928584559291   -0.01976899148832   -2.21984676702632
H           3.33490733018882   -1.53402535761298   -4.87545830826403
H           4.78684614918852   -0.74118354749363   -4.25342538682323
H           3.37558276166914    0.22755116562383   -4.69315146527231
H          -1.55333122493371    1.73208021719092   -2.68302225008768
H          -3.51427746058317    2.63951673619443   -1.86760117202311
H          -5.52124251765066   -0.76293982287581   -3.63611788657281
H          -8.24896688728629    3.37576326189642   -3.04850047266079
H          -6.39711459336556    6.60580461378376   -0.82949176339435
H          -8.27634867737478    6.89226541809423    0.28200927838339
H          -9.70930834768463    7.93852149041435    0.38348898036760
H          -7.31943249198395    8.58081497855557   -1.41830536831405
H          -7.59519090218065    9.27921389468875    0.18463204302911
H          -8.74149633057361    9.58108359716844   -1.12320929688936
H         -11.35545805583094    4.02047500361786   -6.36847723731718
H         -12.59860570851761    5.28590559085766   -6.48736520873606
H         -12.70496839884700    2.77208936921643   -4.73185659699391
H         -13.65015705304955    3.04663198903656   -6.19669275774870
H         -13.95914914494482    4.01583936934948   -4.75001328330536
H         -13.82098342684723    6.49211999796765   -5.04690428626419
H         -13.20073130357432    8.15786030696646   -2.53872308211950
H         -15.12646551170292    9.82071555506063   -1.90788053964329
H         -15.77727628146678    7.54117962269034   -5.53238646785614
H         -19.39070132993878   10.73350016651931   -4.26729329440545
H         -18.80795252329387   13.01507689937750   -0.63962949141714
H         -21.08242210894392   13.20841639098786   -0.61424647065623
H         -26.31708116993603   16.21736864220083   -1.78286985388145
H         -25.57899297789626   16.11600841087892   -0.15569343131528
H         -27.27639397399878   13.93777695069525   -1.48220949236468
H         -27.81865499939601   15.01175219533352   -0.18762579865742
H         -26.54095808869429   13.83165544108047    0.12568128068764
H         -23.11100693318573   13.45236442467942   -5.15836776503528
H         -20.90402627603043   12.38413098615062   -4.83221780978792
