104
 SCF done       -185.159484000410          0.000755185148
C          -2.77052552564039   -2.28351788056363   -3.91858973816022
C          -1.69605116650088   -3.14809299285359   -4.06524136540345
C          -0.43570362524321   -2.66895800587729   -3.77013523355646
C          -0.25194272373779   -1.34829229628109   -3.34495086352950
C           1.19913217498749   -1.14720321563926   -3.09350273933442
O           1.78148851943276   -0.16862752349112   -2.70405425028978
N           1.79404433205353   -2.36504808248264   -3.38844809307206
C           0.88949238050384   -3.33124159713028   -3.80599545946321
O           1.17518511706093   -4.46125045007462   -4.11096969344307
C           3.22072071274065   -2.59397371887817   -3.30196579936090
C           3.92624475218467   -2.17851326048955   -4.58788441122604
C          -1.30964718478111   -0.48293212914213   -3.20677771992000
C          -2.60153123479083   -0.95963752461211   -3.49454065461559
C          -3.74475686084975   -0.08574300254746   -3.34279429401121
C          -3.75367132476165    1.28400335092763   -3.36493695055848
C          -5.09506872513454    1.75051398173342   -3.18578474099063
C          -5.92388232764398    0.54615112600064   -3.00792552388528
C          -5.11013380405147   -0.53770049539156   -3.11277876251277
C          -7.28509550181642    0.48906773552228   -2.68414751989158
N          -8.38639129777617    0.37763241057509   -2.37833704601525
C          -5.53760021861006    3.05135162560885   -3.17939913352195
C          -6.88222488008519    3.50655303839490   -3.08264217570817
C          -6.89549132458128    4.88689972526292   -3.02603097010604
C          -5.51614926447645    5.34586487159260   -3.11796142603845
C          -4.70220946016358    4.26382087427813   -3.23293514612257
C          -3.31031973492118    4.32582900047148   -3.36223323969708
N          -2.16980516144090    4.41744742758633   -3.46401491399731
C          -8.08774105445794    5.65094187766960   -2.90957267912651
N          -8.21439680874444    6.93733037438181   -2.45094416108450
C          -7.18265374958969    7.83053111768127   -1.97929191594358
C          -6.67260791683156    8.73770910936411   -3.09663753261081
C          -9.56211831649616    7.35364039874862   -2.41209356490151
O          -9.91261851933942    8.43788817994058   -2.00036827019919
C         -10.30064314151227    6.22057164610879   -2.92361992940856
C          -9.37620929859346    5.19086520498604   -3.20412385299217
C         -10.11525439432095    4.05435500706151   -3.71894410634127
O          -9.77047549283562    2.97216771661036   -4.13683242960714
N         -11.46348349424064    4.46640131014014   -3.65570864445967
C         -12.52516411800393    3.60883820494116   -4.12282101757522
C         -13.03545186875942    4.03343242854806   -5.49743461473666
C         -11.58897594022694    5.75299480062888   -3.19632673411035
C         -12.82942152941605    6.40558055682630   -3.00763003989556
C         -12.94451870390877    7.73016260307066   -2.72412716982905
C         -14.17962850903240    8.36906145678503   -2.47680507157692
S         -15.67949227892689    7.48171149555224   -2.23284236129051
C         -16.60029108209257    8.93687301902787   -1.93325124537288
C         -15.76785387202813   10.03527918280134   -2.03834053688809
C         -14.42557718530884    9.72338182827441   -2.34063142545329
C         -13.63221545630619   10.95040475373455   -2.48224848603665
O         -12.48629976113681   11.05939722771436   -2.83215541736732
C         -14.58071661590324   12.09561230817812   -2.13628275164086
C         -15.95416848836990   11.48127001555731   -1.90608031851634
O         -16.97705723264548   12.07548770925034   -1.66815824837676
C         -17.98236896858159    8.95447031265003   -1.61000241953639
C         -18.74499104285859    7.85078044038489   -1.47228494400699
C         -20.14143096226341    7.81034625504871   -1.10906495710388
C         -20.74054424373518    6.55050564746041   -0.92130719451280
C         -22.06232965565358    6.49834479822644   -0.55211336031111
C         -22.81481534798116    7.66314462090710   -0.36944487445464
C         -24.18676011124166    7.26701275302293    0.02718485973733
O         -25.14400213609818    7.95453610314262    0.27463759807109
N         -24.17452640490329    5.87806152189960    0.05532800763947
C         -22.94390587511654    5.33448397567203   -0.27559641352854
O         -22.69347466782757    4.15737891637521   -0.32337362397272
C         -25.32119613162999    5.08156839291959    0.43814188019812
C         -25.34557069350830    4.83796406098645    1.94291041843694
C         -22.24679776719131    8.90770831340790   -0.55985526191443
C         -20.91158559310346    8.96755535921588   -0.92759059883063
H          -3.76186743140026   -2.63658941120299   -4.15805446941176
H          -1.83586493129628   -4.16523940919228   -4.39657854986820
H           3.36630414771607   -3.66024004366903   -3.11309080679619
H           3.59710540740054   -2.01090051040975   -2.45780079658490
H           3.54250382739762   -2.75045898882886   -5.42968284004157
H           4.99302631306413   -2.36207391232342   -4.49733424753008
H           3.76776894178291   -1.11931164586246   -4.77665135521663
H          -1.15248533103053    0.52794666923095   -2.86575250132123
H          -2.91373850336183    1.92607291056864   -3.54181110960078
H          -5.41360743230846   -1.56171954185928   -2.99902441387139
H          -7.74308485437917    2.86855220082540   -3.05828017799771
H          -5.18651254262107    6.36625920555978   -3.14664063761632
H          -6.37768275031836    7.24584428928501   -1.52966375861943
H          -7.64280573153563    8.45073298807916   -1.20385519677388
H          -6.30726094495925    8.15851418789192   -3.94235230329732
H          -5.86790036935028    9.36594090647125   -2.72466098043124
H          -7.48056773318551    9.37708040412743   -3.44321810528974
H         -13.33861168142284    3.60024771670332   -3.39164175663106
H         -12.09456080462023    2.60540001557390   -4.18241990586828
H         -13.43084395993727    5.04675642900180   -5.47204743468822
H         -13.82230509620500    3.35835290781954   -5.82165634252435
H         -12.22574737607773    3.99565825031708   -6.22190206453975
H         -13.72874208777245    5.80901612314016   -3.09498246371029
H         -12.06873020755292    8.36620486599432   -2.67756622760234
H         -14.60596861821034   12.84479224323618   -2.92999106458607
H         -14.23925953103597   12.60924696957765   -1.23442931650694
H         -18.38104519325003    9.94842491329566   -1.46012740842585
H         -18.27662332540729    6.88537634467420   -1.62729159571005
H         -20.17274944333318    5.64251319584332   -1.05783435769639
H         -25.25484703755980    4.13327338637376   -0.10046966517273
H         -26.21571912306611    5.62596384272597    0.12628712907841
H         -24.44836023890624    4.30677669368765    2.25236943387857
H         -26.21381134183746    4.23995918143083    2.20437256948529
H         -25.39909149701949    5.78452182617674    2.47586186367982
H         -22.82959639348297    9.80508749810554   -0.42266682135300
H         -20.45811933582783    9.93432329948581   -1.07862104694023
