76
 SCF done       -145.150040037359          0.000635910815
C           3.37063465706477   -0.89524035082388    1.37356310837568
N           3.11994421417472   -2.15093145338421    1.16088815301188
C           3.61441694137438   -2.41849561908655   -0.08460587663365
C           4.22203933530637   -1.21335422259423   -0.67094537547462
C           4.73864387972457   -1.49276690889069   -2.01799838114615
O           5.28957616556054   -0.73523882475974   -2.78736074182792
C           4.40956920750986   -2.92128924763405   -2.19558627524052
C           3.72296687347428   -3.44141250341279   -0.98392074474556
N           3.41100401331370   -4.75394320403310   -1.14349445055321
C           3.84364862204801   -5.06859532371565   -2.33432013858044
C           4.47759950777141   -3.96891259971138   -3.04974012103448
C           4.06506120764021   -0.22432077194059    0.26768631216211
C           4.45867249495381    1.14050594805179    0.21278155618309
S           4.04775846783192    2.28195859418189    1.45436747017259
C           4.81741376042675    3.55975914267002    0.59009862749343
C           4.68684593303886    4.92197917380856    1.08006491417507
O           4.81878919905021    5.91590525444640    0.41202885243002
C           5.39172643904708    3.10583223782924   -0.59810972400520
C           5.17737018997380    1.73452222341691   -0.80239951542445
C           6.22146621752177    3.96080629747652   -1.41591855161012
N           6.26233552941580    3.98423859778469   -2.78165206778438
C           5.39458478734992    3.28464972920470   -3.70055164993472
C           3.93974746237193    3.71646449435135   -3.54964593312655
C           7.19125562521798    4.94328012200534   -3.24756415840206
O           7.38553675893415    5.16278419710284   -4.42668197089070
C           7.77082542090018    5.50045053969887   -2.04824024379627
C           7.15050098730648    4.86390196915980   -0.94042995993247
C           7.72249718774355    5.39952583547980    0.27304230519634
O           7.53509462393144    5.14421497529061    1.44368004127379
N           8.65205318179364    6.35331601683200   -0.18392180773915
C           9.36987134163175    7.18869549241986    0.74753959307424
C           8.69588610567684    8.54826558827851    0.91727084699537
C           8.67859690923808    6.43427742846978   -1.55762960187484
C           9.50108264645524    7.33962772198371   -2.28019093998231
C           9.50627591175431    7.38406960726532   -3.63520374039514
C          10.28016385485295    8.28591409441856   -4.41955283721270
S          10.22591458239659    8.15668686732049   -6.15498200401659
C          11.30243642102259    9.48288734500984   -6.33958921468833
C          11.67243142997588    9.88536125891766   -7.68597603263267
O          11.26651070194431    9.31982391451434   -8.67366876111099
C          11.69186214841400   10.01706376856331   -5.10180331387715
C          11.10282574777501    9.31939434742122   -4.02724083772658
C          12.56282952366285   11.14001359810703   -4.93136153029179
N          13.10770628637198   11.79448814085136   -5.94940624508856
C          13.83911427710335   12.78181332512757   -5.40649891176942
C          13.75357733123234   12.74776136721033   -3.92496845196819
C          14.55688910028657   13.84363213866256   -3.33500596589461
O          14.71556938308195   14.11346842095297   -2.16872745110028
C          15.10331175269000   14.51136506467072   -4.52982907711752
C          14.64199162618695   13.83099904494010   -5.76536293696155
N          15.14268803183202   14.44807707258337   -6.86354203514025
C          15.86216653717207   15.43960642940672   -6.40181402232776
C          15.88098518395613   15.53847441005366   -4.95452445967935
C          12.94515545711740   11.70806398871758   -3.63154626556979
H           3.08070836505380   -0.41837702033093    2.29410933212981
H           3.72003504488367   -6.06864817352899   -2.71236010920631
H           4.89281195041125   -4.02690369058676   -4.03642824577824
H           4.38787560533691    4.97222122850406    2.14306911608801
H           5.54676849631583    1.17268746720822   -1.64180191122934
H           5.49047353679088    2.20439182742213   -3.56524527713815
H           5.75964492970465    3.54349555720839   -4.69877508731602
H           3.55597789316768    3.45752518367500   -2.56523018935684
H           3.33258963431685    3.21796992102885   -4.29988701162872
H           3.84998311966527    4.79193305702487   -3.68456454790309
H          10.40735864865185    7.29920644081094    0.41961607703217
H           9.35808067038774    6.65441879485994    1.70176384684186
H           8.66553202344408    9.09100391848141   -0.02516179663947
H           9.23790482911217    9.14142648650111    1.64873566645496
H           7.67554829028568    8.40973114851096    1.26611590996317
H          10.13042404123482    8.00697964978865   -1.71052775130431
H           8.87863501548709    6.69626670546002   -4.18629218541827
H          12.35477901529434   10.74766749610258   -7.72493885090347
H          11.26957182839247    9.57177426407676   -2.99673497359588
H          16.37691659196759   16.09791255909125   -7.08021344760366
H          16.40869102609785   16.27922883748081   -4.38723727689157
H          12.63003826026501   11.35101358657860   -2.67198074289677
