75
 SCF done       -146.818195599108          0.000335069950
C           4.04294367293420    0.46332811227879   -1.52305326687799
N           3.27858784909324   -0.55432009730272   -1.77063458437534
C           2.35755744220325   -0.10737442695012   -2.67434108825262
C           2.60058493938511    1.31255983858224   -3.00394544037342
C           1.59212598267234    1.78858043857294   -3.97161882627552
O           1.46713052930284    2.88938879417602   -4.45378980098667
C           0.76659398215455    0.58439451261848   -4.19704182425723
C           1.27705689151477   -0.54683488735516   -3.37778450477328
N           0.51913655490897   -1.65850076891265   -3.58158076496474
C          -0.39074976919200   -1.29996804811530   -4.44317824122996
C          -0.29658720137868    0.09224092253813   -4.87120737858780
C           3.68617072102646    1.68894437205858   -2.25894645868618
C           4.37604268708281    2.95415789528957   -2.17648241666651
C           4.08859593725592    3.97674554948865   -3.08649372930591
C           4.75360395009860    5.18459695146550   -3.00917290428723
N           4.36767510797476    6.21966024128282   -3.94219398435494
O           3.96888794235327    5.86615552345818   -5.02686506500275
O           4.46458787585379    7.36960131907891   -3.57032117686124
C           5.73431978135169    5.44026040388186   -2.03247065135832
C           6.00165540473943    4.40630002312914   -1.12416014892891
C           5.34226007007671    3.19943222098130   -1.19178436190449
C           6.49373029712439    6.66852652552187   -1.99804749542470
C           6.99091583998294    7.19909597218183   -0.85986905304087
C           7.81804931590558    8.35968718553744   -0.85632181518382
N           7.92956271283609    9.15533328477821   -1.90794552924594
C           8.68636927551096   10.19316602774848   -1.51414204432457
C           9.08361501544959   10.05526205211244   -0.09515294242559
C           9.90400830098512   11.20718094651195    0.32713734829033
O          10.35990907738118   11.44354025859842    1.42398983121376
C          10.00368437622585   11.99720360398559   -0.91091723614551
C           9.24193000886921   11.34758940000834   -2.00399716234290
N           9.34949693002980   12.06356119464619   -3.14894220422886
C          10.11413910931378   13.08291975532767   -2.84709007952177
C          10.56659892910064   13.09861869574138   -1.46895920100347
C           8.58133044666046    8.85732674241998    0.31787658978950
C           8.76249536077979    8.16581979733033    1.57397454840540
C           8.77023796387968    6.77794625928284    1.63163675140572
C           8.91744595292257    6.10545909777759    2.83727148724273
N           8.85598214851722    4.67452043087423    2.75430171603690
O           8.25832374129243    4.21010601074018    1.79765359976576
O           9.37907533957497    4.00031438178059    3.61616566055165
C           9.11384538104130    6.80193101705276    4.04803295453266
C           9.14037605596877    8.20411164655651    3.95691246365777
C           8.97210426202154    8.87162260071823    2.76806172962373
C           9.23311096891312    6.13708177791605    5.32182002650473
C           9.84622517463591    6.66661977316892    6.39957020936880
C           9.97501012624365    6.01100507536109    7.66049512858049
S          10.78488012995773    6.84077582991932    8.96654925735121
C          10.55040821171720    5.51111401409727   10.04501064091911
C           9.87473106977493    4.47070282031921    9.40731376868771
C           9.55886258879691    4.76769306825115    8.06505830127822
C           9.51504279988952    3.19951496724841   10.02072225354181
O           9.72731580769538    2.85690760565508   11.15811262055213
C          11.01581889421143    5.53827110862602   11.40017757686020
C          11.64957061199389    6.57057235231145   11.95552537259394
H           4.86553227937316    0.35960603460686   -0.83747467017457
H          -1.12868788436858   -2.00633382491052   -4.78253834046405
H          -0.95084704253594    0.57274076689237   -5.57123924028871
H           3.33245026513523    3.84582626276133   -3.84849621016092
H           6.76390030275430    4.53770324550782   -0.37175115671700
H           5.58120471812991    2.44020097539717   -0.46454623473465
H           6.70213702214165    7.18699328377784   -2.92420469181371
H           6.74553551924737    6.76415967049330    0.09831200443836
H          10.35371764282904   13.82144497332039   -3.59236625463962
H          11.20278490804941   13.84116198968774   -1.02961731020426
H           8.71200742430216    6.18908738330984    0.72909140843883
H           9.26878599175032    8.77739813720444    4.86084872832726
H           9.00550043531266    9.94957743964949    2.74506521628051
H           8.83745461275697    5.13526919361772    5.39296191652830
H          10.31628644137390    7.63875566139757    6.33906578348683
H           9.04861339516865    4.07533001873077    7.42003432157615
H           8.99330640710889    2.52363257576341    9.31538946070989
H          10.81253774837552    4.63856906498985   11.96473267760847
H          11.85642334725245    7.47324579710316   11.40195289444351
H          11.98025388923554    6.54189118033914   12.97818124187343
