88
 SCF done       -164.975430699374          0.000405147503
C           1.72241825715841    1.01190889686276   -1.38887721921622
N           0.84512905753799    0.05698585688886   -1.34018741327648
C           1.04966856843783   -0.57202419157517   -0.14217289770736
C           2.14646005186799    0.07125455893161    0.59123675036549
C           2.38501287308075   -0.59113566904743    1.87871555603210
O           3.20428421673454   -0.30947686708626    2.72384757669707
C           1.37401243391257   -1.67127730678185    1.86697599683006
C           0.58010090768576   -1.61194551476104    0.60947664764191
N          -0.35106118611722   -2.60178321414860    0.59051750669818
C          -0.18850557566631   -3.24874426138476    1.71209053922316
C           0.87510038267925   -2.72124194805828    2.55845214856833
C           2.59209008907518    1.09335083466235   -0.20539815627081
C           3.64520692732395    2.01887886652018    0.03435418185517
S           4.53574937788355    1.96529191363797    1.52355849252418
C           5.51647833715989    3.28783069191769    1.02118008928338
C           6.48989303887034    3.86134432374731    1.93418809288719
O           6.99146135512199    4.95134286493968    1.81732374374822
C           5.17192485795641    3.74276451739394   -0.25203808893560
C           4.10537854097840    3.01785738466329   -0.80058261056382
C           5.95470027648381    4.74838540665256   -0.93863760613203
N           5.46024712895645    5.82144821664189   -1.62540333174400
C           4.09408836328299    6.28584766232645   -1.63350684604801
C           3.64881985818135    6.75098412475348   -0.25073415263154
C           6.50409734980633    6.59227066564570   -2.19095443418218
O           6.30687089586830    7.60775692497757   -2.82893197367723
C           7.70880210086720    5.88236601970676   -1.83492830106416
C           7.32819437648819    4.75377004288704   -1.06266949386931
C           8.52334858368453    4.03032352661276   -0.68590422052522
O           8.68991786765178    3.01720894753375   -0.04367093814934
N           9.56626682262728    4.78596409876713   -1.25399352993144
C          10.94506987160047    4.38113890238925   -1.10953559778086
C          11.47672361443428    3.69091304494906   -2.36269864732247
C           9.09982882444687    5.88534450537331   -1.93632793254531
C           9.94997133094892    6.80855382408956   -2.59397188381088
C           9.46981120853947    7.90822125409442   -3.23593081055306
C          10.23483317148721    8.87671825946530   -3.93044456026863
S           9.45662071884609   10.37852147466619   -4.32955729477831
C          10.90288022227463   10.99197188203581   -5.07140449936148
C          11.92794843031078   10.04194917553027   -5.02638660767092
C          11.55538128280492    8.85884508404983   -4.39259458561144
C          12.49342019725468    7.70529824228107   -4.27709220375887
C          13.69950830048058    7.81964264747071   -5.21342273885658
C          14.68807246132957    6.69905700193793   -4.84609430014060
O          14.38764810807956    5.81363049433035   -4.09286179462181
O          15.87265657441800    6.74804931941377   -5.43623003250142
C          14.30418407148626    9.23005968605159   -5.14467100494843
O          15.44757406275361    9.28243988216097   -5.98496225311047
C          13.27527980377712   10.26210777268423   -5.61643510936241
C          10.96288224460641   12.29245248971736   -5.60649683342259
N          12.07371690417546   12.78458707483433   -6.17082391713747
C          11.76387157431541   14.03257655847469   -6.54161656359179
C          10.35833913545069   14.36122657836428   -6.19828784652475
C          10.03822398317375   15.74718945973444   -6.61468492447769
O           8.99479878326008   16.34458859530552   -6.49292437625480
C          11.30781396577249   16.20120383489366   -7.20501447567892
C          12.32736877110531   15.13408853065193   -7.13950820073932
N          13.49662464400413   15.55434438069006   -7.67675094483735
C          13.26925827725184   16.78927353212584   -8.06468836565704
C          11.92837887212024   17.25491738066458   -7.80123952731757
C           9.85951657709510   13.25663710141559   -5.60458096494949
H           1.76953140838141    1.66338962994922   -2.24366499358329
H          -0.81209655126144   -4.09328309021037    1.94942297893356
H           1.16129816701521   -3.11512054022783    3.51351067641867
H           6.71034772195362    3.20935952536082    2.79841149385752
H           3.71120058006232    3.18506128706692   -1.78668992481809
H           3.43319748606963    5.49591892194623   -2.00036237170287
H           4.06954792591361    7.12215386375867   -2.33792637599571
H           3.67490941235557    5.92839444602116    0.46067651757352
H           2.63475733673162    7.13750594096905   -0.30122907823159
H           4.30630490665059    7.53847084689063    0.10887426662844
H          10.96462803605387    3.68151168556249   -0.26948104193599
H          11.55744815880904    5.25032196751877   -0.85545206768558
H          10.90668139092987    2.78654411845173   -2.56034275041299
H          12.51962391899659    3.42459551854644   -2.21981346732023
H          11.40865560771086    4.34181942509134   -3.23073259193435
H          11.00825881290879    6.61938114945425   -2.53851469497764
H           8.40345564009509    8.09643548176308   -3.20415241108097
H          11.97183443839931    6.77215021242534   -4.49717326794577
H          12.86947555916701    7.63517646869508   -3.25109519344367
H          13.39239078932791    7.63940880623767   -6.25085660168569
H          15.99777634267658    7.59200413938380   -5.91484988240627
H          14.59923435417865    9.44193125217530   -4.10438338557302
H          15.75192803423688   10.19460945590845   -6.04611091063835
H          13.19435668957513   10.20126041136201   -6.70705746953004
H          13.60643074119177   11.27893392796807   -5.39282134981456
H          14.05071884342930   17.36042142736295   -8.53558430795935
H          11.54624204628261   18.22765402005095   -8.03971257826543
H           8.88402007897907   13.06558435693248   -5.20235652723147
