88
 SCF done       -166.127054790233          0.000710469919
C           3.72040433252063   -0.58540719103732   -3.23480337814293
N           2.94770708812838   -1.62100885513696   -3.10488955599542
C           2.26545680947708   -1.42204171833144   -1.94058838653287
C           2.66810853259065   -0.15035702156499   -1.31109491970232
C           1.92065608331161    0.05026565914773   -0.05760779560254
O           1.98700215551342    0.96898131868988    0.73014656736185
C           1.06547610952607   -1.15064973812822    0.00957579445744
C           1.31587446392433   -2.02226513988419   -1.16381427267775
N           0.53093290578878   -3.13045669395123   -1.10780138682111
C          -0.16700510111687   -3.00144507576092   -0.01182863082388
C           0.11579961806530   -1.78513803050304    0.73656478099650
C           3.61022687811302    0.39744511700449   -2.14679997603250
C           4.34547715607869    1.63285718366949   -2.04621565412202
C           5.26775210478339    2.01468405734735   -3.02159694621092
C           5.95764737361067    3.20845203087400   -2.90966141336276
N           6.96730675520704    3.48469537902541   -3.89972225208886
O           6.86630958521411    2.92339249374251   -4.96969315490978
O           7.87551134091445    4.22655666868666   -3.58967217099518
C           5.75001232723411    4.09011145640983   -1.83281198654219
C           4.83751081043945    3.67804878582254   -0.85127574056977
C           4.15592382680004    2.48839995233137   -0.94769170762241
C           6.36604156515027    5.39200604572994   -1.77175026115401
C           6.76156384377483    5.98375407514865   -0.62315948552308
C           7.30708585400675    7.29690347967886   -0.60441111102155
N           7.85549747044221    7.89037491040099    0.50751799709985
C           7.93950890412990    7.32914175261672    1.83346161105009
C           6.61417454734024    7.44658020496825    2.58328921898363
C           8.31446509549344    9.19734586827509    0.23827517896411
O           8.84418973817232    9.90838049087279    1.06653179770519
C           8.00970894519161    9.39145190459045   -1.16013171688617
C           7.39628161013582    8.21255342739112   -1.64872829787884
C           7.08299629461110    8.43426033993873   -3.04172951232699
O           6.56398670678086    7.72729766367378   -3.88124908340620
N           7.52689449501358    9.74865804672251   -3.30326315004331
C           7.41268651526323   10.27668423010007   -4.64311164241338
C           6.06020363287173   10.94248477843555   -4.88491542239008
C           8.06664963016762   10.33230478194453   -2.18461374599527
C           8.59402096521820   11.64455579275030   -2.00565846325663
C           8.40788671367209   12.73051265297747   -2.78365934491377
C           8.94740976811766   14.03328108565504   -2.49155877878788
C           9.99027437601133   14.29298996082169   -1.64137765515191
S          10.38309204769568   15.95760340856229   -1.54913352658883
C           9.14442589963089   16.35437576107078   -2.64964943650405
C           8.45483147659369   15.25189114421093   -3.08399926791540
C           7.32433787905775   15.32628794068852   -4.00429254777445
O           6.65867852538603   14.41036897366374   -4.41053115607314
O           7.07827930484367   16.62868334337228   -4.37409507629066
C           6.02899438895507   16.86906676568952   -5.18248767502927
C           5.72589665518071   18.11381907870559   -5.59191340182102
C           4.60220226470873   18.35871487861512   -6.43195739875747
N           3.78940039965047   17.39369175940023   -6.85034281055247
C           2.85861702037406   18.00336838012132   -7.60086194822738
C           3.10333831559623   19.47064429780308   -7.66521067676262
C           2.06831522626710   20.13152988737444   -8.49245840146541
O           1.95658069618644   21.30404007691916   -8.76050082155171
C           1.21848645638402   18.99861747474034   -8.89828363073372
C           1.73552429795821   17.72791898380292   -8.33503111734809
N           0.94965570841800   16.68814090357305   -8.70848328066891
C           0.00560542585629   17.21876532817905   -9.44511882886028
C           0.11195675894991   18.65516434414893   -9.60507340684566
C           4.20844561925136   19.68482931547395   -6.92130803937205
H           4.36684861965289   -0.50769241518798   -4.09138774294809
H          -0.87871807641036   -3.75695508956788    0.27300844941265
H          -0.35214271725935   -1.49806430235793    1.65737032526661
H           5.47952387179047    1.38888624615410   -3.87477980818578
H           4.64060488906480    4.33597767820061   -0.01903860307476
H           3.45531362759651    2.21075644018472   -0.17480505970252
H           6.50529522472189    5.92068775517060   -2.70655882299176
H           6.71243344910657    5.44334107340776    0.31178325437852
H           8.70694231924721    7.90537378645866    2.35804785984962
H           8.26292343458580    6.28652706956089    1.77043817003834
H           6.33496904426059    8.49296779787197    2.67851279890481
H           6.71407470868110    7.02158859554329    3.57815853824778
H           5.81833267591219    6.92419725731591    2.05693586772641
H           7.50719458471959    9.41891014599248   -5.31686038361003
H           8.23999545074398   10.96402708308706   -4.82929786471192
H           5.26564240298443   10.21396319888482   -4.74486883344029
H           6.01460838820851   11.31528475040339   -5.90408428684879
H           5.89334079995352   11.77512724721645   -4.20649725310249
H           9.14094046608023   11.74175037202223   -1.07644407482182
H           7.77655561381705   12.69103277566210   -3.65492438348402
H          10.56443016106812   13.58803482269878   -1.07472493579583
H           8.97603106582647   17.37561578183466   -2.92725460902459
H           5.43437656297767   16.01392155914010   -5.48587499660025
H           6.32801389032804   18.95691163261051   -5.28688582278373
H          -0.76151859726564   16.59697750194058   -9.87373357792870
H          -0.56034791592246   19.27158600670669  -10.16817673356902
H           4.72519386093503   20.59854105188236   -6.70316096887591
