77
 SCF done       -149.468075745546          0.000451169759
C           2.83706765543909   -0.46956015889929    0.95401084580446
N           2.47119250769031   -1.67262754114680    0.63378281372491
C           2.93776736250617   -1.87325026564272   -0.63506520928214
C           3.64485420617621   -0.67784683189800   -1.12213576363042
C           4.14268828136893   -0.88744848275230   -2.48899000525714
O           4.75079997156824   -0.11470134444419   -3.19730293174071
C           3.70980311771536   -2.26948178826720   -2.77716718122893
C           2.97321086052573   -2.82727061776683   -1.61193935113685
N           2.57433649966612   -4.10021153590349   -1.86975325330301
C           3.00478490252705   -4.35890713553988   -3.07438900822366
C           3.72495665143229   -3.25768532742651   -3.70133381669844
C           3.58786727904902    0.23120325708103   -0.09586683382435
C           4.12487928914354    1.54545242360996   -0.02445449434944
S           3.89291299512674    2.57495414313063    1.35374175513547
C           4.80040107903105    3.83873373353648    0.61282942278050
C           4.88536730377191    5.13500795769515    1.26419779526861
O           5.16551869577984    6.16951540169728    0.71398424988414
C           5.27612406440954    3.46291353736879   -0.64392540644342
C           4.88139384969744    2.16417298027334   -0.99704043838429
C           6.20202362839752    4.28946723183071   -1.38482126860113
N           6.21049736808815    4.49354510402154   -2.73253328894805
C           5.20897098621096    4.08099918775463   -3.68786797855514
C           3.85303281672651    4.71536506990143   -3.39754360370185
C           7.28416371328119    5.33818896947873   -3.11524665644827
O           7.47966681376387    5.68135075091602   -4.26050564218621
C           7.98259481892033    5.61623241974529   -1.87952663591602
C           7.28348469090640    4.95270418127345   -0.83860679541782
C           7.97133815406208    5.19824256248368    0.40755138065429
O           7.75947945430300    4.82240435246945    1.54107914029208
N           9.05560203579103    6.01409433692138    0.03727437131902
C           9.94031614817190    6.55993458316052    1.03767356693545
C           9.56417243796899    7.99473715313513    1.39896471375376
C           9.06849789691997    6.28046754313751   -1.31459733486593
C          10.05449322890273    7.08986095598552   -1.93664762302967
C          10.06408667447290    7.35965292950898   -3.26515249214646
C          11.03559776063508    8.18021047164418   -3.93185770340937
C          12.09453769471286    8.82945012510146   -3.28135869051774
C          12.98808897227430    9.60997852794027   -3.97468540968189
F          13.96984128423239   10.19159217639591   -3.26302618314943
C          12.90184996868460    9.80652019583801   -5.36281432489131
C          11.84583040421191    9.15595361264481   -6.02149613891888
C          10.95486498832864    8.37825981442580   -5.32632961475537
F           9.96663279293760    7.78285317942776   -6.00689260412582
C          13.80340471020961   10.61490029269941   -6.13709372355578
N          13.63310921343663   10.71519000773631   -7.45310471283428
C          14.60986834374430   11.52530645785369   -7.88885768022809
C          15.46428461667455   11.97509119491287   -6.76031704760517
C          16.53911092593320   12.86772896510757   -7.24822722857967
O          17.40832092920978   13.41767170193196   -6.61515957956624
C          16.27605469131578   12.91313463818206   -8.69862788036656
C          15.09515826729336   12.08438591907821   -9.04188071931463
N          14.85605640742668   12.12568808868562  -10.37569781186358
C          15.78813618967669   12.90388809801544  -10.86679265025149
C          16.70769135841369   13.42951250378053   -9.87654458011298
C          14.94859807042958   11.39348029536583   -5.65573062398596
H           2.59521215173004   -0.05245586087767    1.91648874381873
H           2.81890981683581   -5.31836103748784   -3.52524202740490
H           4.15474758384897   -3.27565007700742   -4.68327511237487
H           4.61412095168395    5.10069363494231    2.33507243644264
H           5.15505440544808    1.66571364695953   -1.91023805823936
H           5.12797815846490    2.99105545594042   -3.70173221438930
H           5.57873352555570    4.41561434378881   -4.66135367898866
H           3.46655338380218    4.38603711787598   -2.43552273156222
H           3.14483332750044    4.43171081162359   -4.17066657157436
H           3.93936582473991    5.79919403883056   -3.38317552436075
H          10.97553166287028    6.49738781985425    0.69048060054464
H           9.82737313261114    5.92051865030405    1.91771828990753
H           9.63610152507884    8.64973642075946    0.53338499326392
H          10.22569975572912    8.36542850944285    2.17696469842611
H           8.54162233878836    8.02343960906985    1.76674341838580
H          10.82036347349982    7.49497777626711   -1.29245395053274
H           9.28844865687612    6.93819292499387   -3.89181698966035
H          12.23214181086313    8.73349065126531   -2.21682781543754
H          11.75150682098646    9.28446485795623   -7.08797878157260
H          15.82481860886823   13.10588327275138  -11.92346831662757
H          17.53470514201820   14.08119577604527  -10.07744903515122
H          15.27874291291840   11.46616565347894   -4.63978450741380
