87
 SCF done       -176.054609105733          0.000515185266
C           1.97789340632209    0.38009551210455   -1.23657497677954
N           1.50352785945232   -0.82523277719326   -1.17879602346229
C           1.90929891217875   -1.32801185244788    0.02738817718869
C           2.70293474301947   -0.32931673532238    0.76083577412029
C           3.14499687968434   -0.85481327591246    2.06097473556202
O           3.80923218668121   -0.30200913658670    2.90742788388841
C           2.56961558524159   -2.21744902915261    2.05863332366669
C           1.82435257584593   -2.45555131074300    0.79236363612132
N           1.29216155203301   -3.70653537649066    0.78562632789221
C           1.64626756888652   -4.23772120281490    1.92303294447254
C           2.44708478504864   -3.36135780659402    2.76967070889481
C           2.75039194663255    0.77341791137709   -0.04725502403712
C           3.37749344450251    2.02747799990381    0.16262707666013
S           4.27578272741501    2.40079595210945    1.62392709709466
C           4.54409035623561    3.97335336674156    0.88254501836993
N           3.98666085479117    4.07855179950052   -0.29690636898217
N           3.35231103452591    3.01900307989715   -0.68711827002064
C           5.29008089338379    4.99327539472163    1.53451843417935
C           5.46958171742988    6.21256431508189    0.96913429651538
C           6.17032244023646    7.34505115372834    1.45937207207289
N           6.95099075095771    7.48822699026446    2.58320993252818
C           7.25103747888630    6.52327042178724    3.61421019434059
C           6.13234442283277    6.43928488075404    4.65033249528174
C           7.47065937703329    8.79366647971840    2.69497877907822
O           8.21758249600742    9.14110976512929    3.58623265689059
C           6.94333075116350    9.49712416193061    1.54576836214238
C           6.17296240279137    8.57664989091074    0.80209402408510
C           5.66760654635137    9.25602610196315   -0.37425074194570
O           4.98067738191185    8.88960795785012   -1.29907787039018
N           6.18315568039392   10.56810143107690   -0.25420519196301
C           5.88303259355981   11.58048730962472   -1.23742750303466
C           4.75134138624061   12.49687606477625   -0.77895557908389
C           6.92547539831492   10.72600182942678    0.88523878195338
C           7.54834045561696   11.94550599155670    1.27258300505561
C           8.18149821417860   12.05698498927555    2.46011281684953
C           8.86344014992992   13.20970532021316    2.98246078815727
C           9.73500560895246   14.07840200061856    2.28940700116465
C          10.11800880446992   13.91822049731458    0.86849383808639
O           9.75494922306482   13.09436458229660    0.08311098728567
S          11.29812326353762   15.19296529367475    0.42055325699992
C          11.26421626606118   15.93600910827043    2.05006281381312
O          11.84874246615809   16.94124686252477    2.31661308866957
C          10.40362007122680   15.12069272881098    2.93482302975582
C          10.27697492073217   15.40349204091792    4.31026763756683
C           9.41205201572916   14.53296459343617    4.99532692861963
C           8.75139977688621   13.49408692617202    4.35491957879188
C           7.92208306269774   12.79619138069262    5.36788999782083
O           7.12200212762114   11.92502008528409    5.24172280926426
O           8.19989891790459   13.38282673358732    6.58063134438934
C           9.08252316503989   14.42324363897429    6.44475841703419
O           9.46645594389048   15.05503904801477    7.37765793705795
C          11.03233377034452   16.44991327248348    4.95257362918206
C          10.57442885020884   17.25696943851611    5.93109111315719
C          11.42702358091384   18.20978707482990    6.56589234077047
N          12.71520554635604   18.33010476312825    6.26797954321818
C          13.19067206863059   19.27991818904342    7.09040460965897
C          12.11249943298695   19.80902750190119    7.97070662829818
C          12.64964818530819   20.84813458050581    8.87821214150902
O          12.06495489426124   21.49588387477962    9.71201015945327
C          14.07641204236713   20.88686065983727    8.50376634452814
C          14.35687993751725   19.92032277151407    7.41188068487114
N          15.67096632818288   19.95160238294589    7.07592145749402
C          16.20619991710498   20.84553715283679    7.86678136360753
C          15.26850696976234   21.46684703168417    8.78599318216018
C          11.00093009155623   19.12244629030020    7.63239619950326
H           1.80912719423726    1.01634141889374   -2.08680428019562
H           1.34831168675088   -5.24157038016118    2.17207438171938
H           2.83186457835533   -3.61502164633806    3.73770192689164
H           5.67978094338525    4.72773589527453    2.50336796250100
H           5.00630441380176    6.38016638201863    0.00427527870057
H           8.16268138639323    6.88152164070955    4.10228371622680
H           7.46054138939777    5.55332834777016    3.15851434800194
H           6.02682768002922    7.39822385654797    5.15173291402320
H           6.37347088199648    5.68420691453502    5.39345529367282
H           5.18059084396635    6.18815935305599    4.18723736494557
H           5.57543287815651   11.04426521490270   -2.13948693571284
H           6.78826719106969   12.15254002164004   -1.45700844831289
H           3.84868347356716   11.91512043040185   -0.60950791320949
H           4.54633468751174   13.23905144186659   -1.54523828892049
H           5.01182283070442   13.00874765431773    0.14510142601746
H           7.47273853724931   12.78384806785802    0.59751482307384
H           8.14137367162269   11.21890962896747    3.14734559603548
H          12.04372961595971   16.61809565674491    4.60450671951267
H           9.55064603850826   17.21860705332399    6.27230432512703
H          17.25767601523094   21.06714169574718    7.80279974007783
H          15.51239420123321   22.21676132435920    9.51199346033315
H          10.00625565564098   19.18271195452048    8.02753673242690
