60
 SCF done       -131.275269950042          0.000701808133
C           4.01690840032118   -0.56873523982886    0.98671848608166
N           3.17997260633812   -1.55445140825428    1.08469560684485
C           1.94137652253844   -0.99741297019870    0.96954112069268
C           2.04355929338965    0.46565444363984    0.77497257005143
C           0.69365192572913    1.04978458167739    0.65393283294174
O           0.37714863078108    2.20393069955696    0.47355588702536
C          -0.18679279810671   -0.12446781526373    0.80426362042862
C           0.62659712644434   -1.35351223872795    0.98823624221033
N          -0.18136280360334   -2.43863311690018    1.13247002078962
C          -1.39680066803473   -1.97355071326316    1.05862285989639
C          -1.47544358523732   -0.53137017985731    0.85595175864741
C           3.38461942575788    0.75068863090830    0.79272324022261
C           4.05779796388458    2.02346775501409    0.65923502960967
C           3.30760170828343    3.18660080140425    0.44183639271179
C           3.92506096511591    4.40939543351923    0.31204581194894
F           3.15287029760667    5.49364665998627    0.12110753496065
C           5.31157975143389    4.56649546657798    0.39977059695949
C           6.06165193003661    3.41599969680547    0.62265401504545
C           5.44760072159357    2.18617000996817    0.74169544612260
F           6.25227035339025    1.12718214537912    0.94291050309761
C           5.94693547984918    5.88399030870591    0.27537066166606
C           5.55887577231117    6.78379052803676   -0.71406526756318
C           6.15914357520658    8.02255596309120   -0.80393874044226
F           5.77041837931174    8.83960818352137   -1.79911205737442
C           7.16620442817318    8.43422771820832    0.07197320348219
C           7.55668645125337    7.53232902369651    1.05938983202871
C           6.95702546462501    6.29346218695124    1.14830162987007
F           7.34846356699029    5.47486425804622    2.14101781949102
C           7.78744098587878    9.75970097687777   -0.03407817779716
C           7.02200887188394   10.89945010241715   -0.26591025213450
C           7.61597637742060   12.14243049309119   -0.35241410328231
F           6.81041160761725   13.19474226527061   -0.55667345750539
C           8.99914375294506   12.32047812736140   -0.21738595684097
C           9.76703012746427   11.16986098817237    0.00981739389843
C           9.17091949595942    9.93534028257938    0.09839422767952
F           9.95550636549798    8.86092383781250    0.29426505803505
C           9.67899363027419   13.59131544239048   -0.29030908113954
N          10.98220351259243   13.64886386757324   -0.05101721315908
C          11.32460035733796   14.94211851368779   -0.18980381408802
C          10.14037952913621   15.76229165496254   -0.55545026532276
C          10.52383385375218   17.18471519575374   -0.70375573165134
O           9.83046166197497   18.12597642877976   -1.00221116178182
C          11.96689052614999   17.15593160773438   -0.39246225990311
C          12.40753632106225   15.77004033434576   -0.09125553341552
N          13.73266077480470   15.74534776028544    0.20246002374687
C          14.12706648259829   16.98835960424511    0.10906222677170
C          13.07557629184027   17.92284465535301   -0.25614020352657
C           9.10143967017725   14.90124506728184   -0.61123584897146
H           5.07291501919183   -0.75847641848868    1.04536679469361
H          -2.24059450564226   -2.63638642425222    1.14450821698013
H          -2.38083043129525    0.03608745303322    0.77195655008449
H           2.23056381030214    3.14009426580962    0.37713005540305
H           7.13628356710896    3.46426429377569    0.69622325316752
H           4.79364010168128    6.52313730383534   -1.42751221539742
H           8.31864547237822    7.79317764936152    1.77604917695556
H           5.95071330951807   10.83065695267823   -0.36894076595310
H          10.83516317748176   11.27557275168755    0.11223313427412
H          15.15480562305658   17.24770986587690    0.29721410579250
H          13.19891006549280   18.98028616949025   -0.38028254563018
H           8.07385370896473   15.09616811882051   -0.84071828744293
