76
 SCF done       -144.416924874522          0.000584519316
C           3.50983225587761    0.88680004845372   -3.11709339253852
N           3.10510745371433    0.18827068848624   -4.13167703222200
C           3.24857356504918    1.00132693094649   -5.22308520492704
C           3.79640924263019    2.30772391905172   -4.82502381708088
C           3.94522709883660    3.19521829570742   -5.98902720090298
O           4.36289765048511    4.32904117263128   -6.02069005168480
C           3.45051933013718    2.34524833398894   -7.09478938606189
C           3.03963311193413    1.01416994667641   -6.57213552040838
N           2.57636091284778    0.23170315784360   -7.58305544332358
C           2.66751997895492    0.96692747956843   -8.65662351654893
C           3.20441611823525    2.30234607263724   -8.42397856532827
C           3.96269772163310    2.24233489322032   -3.46871978254935
C           4.44047223667352    3.21679213405024   -2.55545783876441
S           4.97850462912888    4.81136726131101   -3.05193562961502
C           5.26467405155477    5.08987265063111   -1.34305910430026
N           4.96172215132941    4.05096857185565   -0.60097333755975
N           4.51442878935127    3.03099775173464   -1.26295916486850
C           5.75078250922661    6.32488327547993   -0.83879280773887
C           5.91899899882822    6.53124238730892    0.49228944599641
C           6.36481637410419    7.76364424569436    1.02951752144980
N           6.49155515690757    8.00798744887632    2.37633905677445
C           6.16722142151742    7.10030090840486    3.45107052292992
C           4.66250648398091    7.02546741865021    3.69683473243169
C           6.92368832363055    9.31938289248182    2.63590607611602
O           7.09912428540756    9.76185627156777    3.75331216771161
C           7.08599545306786    9.90913128225011    1.32347093595310
C           6.73966360520460    8.93047421410029    0.36185783084411
C           6.90900278000138    9.51692427868887   -0.95101257452497
O           6.74059823352122    9.07306958839671   -2.06822686536034
N           7.35614842535091   10.82399451903429   -0.69173088281217
C           7.59763057393179   11.75802285699333   -1.76561825140740
C           6.42373132112294   12.71389828807254   -1.96174316255491
C           7.45446714351989   11.07800259936899    0.65544745754847
C           7.84934594241833   12.32695916251894    1.19334670015491
C           7.90493460061014   12.56926776817659    2.52836323399314
C           8.25683121955110   13.84555180779929    3.03626356571489
S           8.30478151563143   14.20108810874062    4.75411738910960
C           8.74259207042130   15.83704663969517    4.27094153028095
N           8.81623777796703   15.96633528600725    2.96998044143237
N           8.55400376703560   14.89124980467444    2.30120715873276
C           8.96516591646511   16.87642551847161    5.20847504689140
C           9.27251967902501   18.14626442060146    4.84221646829903
C           9.46782400965650   19.17673739753272    5.79822984865311
N           9.37092261852271   18.97066947082370    7.11196987225493
C           9.60469284237999   20.15972966326062    7.68317241961500
C           9.87091815520926   21.20317782207502    6.65617802656684
C          10.12302164974612   22.51138721475638    7.30201716323843
O          10.37045926628330   23.57246857756473    6.78030255382230
C           9.99293621269268   22.18689162159454    8.73370618503212
C           9.67899024833746   20.75045250364979    8.91895691116626
N           9.55874106371814   20.45538856454769   10.23595586836286
C           9.77221454397839   21.58701366591732   10.86174442308515
C          10.04833581791898   22.70771045179240    9.98609137805640
C           9.78318826546890   20.57080598461889    5.46736923474539
H           3.50603937575224    0.49026292411832   -2.11769759783272
H           2.36023021302059    0.57704751590205   -9.61170102737080
H           3.35329331084235    3.05151283376617   -9.17616021852863
H           5.96964533689498    7.10344848923617   -1.55626490315271
H           5.68927528378071    5.72097199344079    1.16851463664204
H           6.66509309238839    7.49583892616608    4.34080882507956
H           6.57466559081019    6.11093124272398    3.22781910175356
H           4.27786985732492    8.00994258482819    3.95199430828170
H           4.45986314770576    6.34923673910389    4.52237261308410
H           4.13973394276532    6.66567313420491    2.81366426498975
H           7.73209914702920   11.15330457063150   -2.66683445467843
H           8.52049269669307   12.30944627656620   -1.56816665553625
H           5.52200433068520   12.15207800297925   -2.19274720272292
H           6.63418734049538   13.38699897997948   -2.78788148036121
H           6.24615767112207   13.30437732926666   -1.06580471356581
H           8.10475755883511   13.12870143917060    0.51618142900736
H           7.66534015616303   11.79600579906492    3.24496418429398
H           8.87439105394722   16.64141089241373    6.25929686613172
H           9.36648955375170   18.39558034437707    3.79515461348435
H           9.73348297970335   21.62761004546204   11.93645653793992
H          10.24761804915731   23.71235043966005   10.30223992465015
H           9.90458574051551   20.95171625792530    4.47246831458292
