62
 SCF done       -129.442981470813          0.000413285289
C          -1.10681435904696    2.62302799276808   -1.22195032772719
N          -2.24296709338122    2.74941631073897   -1.83393351521253
C          -2.02626032794567    3.65829044154378   -2.83069763317523
C          -0.64168904030916    4.16395518565093   -2.77880989938465
C          -0.39043436672673    5.09921759083643   -3.88532025520042
O           0.61189458028305    5.74265672099492   -4.11851704575988
C          -1.65579311459461    5.05518559332826   -4.63513357056135
C          -2.63667432343848    4.17999942041599   -3.93295364567450
N          -3.78973491242750    4.09882614412515   -4.64597690256521
C          -3.58119609462182    4.80710728111932   -5.72123060244855
C          -2.25883080790603    5.41896801144556   -5.78937233296267
C          -0.03366223331535    3.46564099408044   -1.76654878090979
C           1.33746743650629    3.45803954092344   -1.38202792534489
S           2.02268377057152    2.22583068930377   -0.36882336543724
C           3.60997060234708    2.85083089053073   -0.61406642433315
C           4.74063051252843    2.18228584518218    0.00309187881153
O           4.63772187856080    1.22057410819999    0.72405397213571
C           3.60762916616160    3.95074393887592   -1.47469029186125
C           2.30458288190632    4.30986904308097   -1.86696200701563
C           4.78926922913831    4.61802513570259   -1.94934268284655
N           5.85413525168626    4.78888808610167   -1.19722684248593
C           6.71773446661752    5.53126750076481   -1.92688300830676
C           6.14752735370861    5.85393178875121   -3.24507724243602
C           7.08991762419497    6.67398968822568   -4.03041579986440
O           6.93145187294485    7.15575188902665   -5.12928143070886
C           8.25101652504805    6.77448329073016   -3.12862029200471
C           7.97430532759827    6.06915705481843   -1.85233540835881
N           9.04649641996050    6.14517564016555   -1.02547613206714
C           9.94579785813259    6.82369688963848   -1.68923785519624
C           9.51859956095335    7.24003583700640   -3.01566214901184
C           4.93002566913669    5.23148843069055   -3.29758985030914
C           4.04025092595490    5.15572361431012   -4.41501703954843
S           2.86002825040487    3.89564055048760   -4.62836600587918
C           2.29370430931375    4.60607021455759   -6.08390870064797
C           1.09152042018894    4.06120519106363   -6.67695368934567
O           0.40831377742764    3.22555898470800   -6.12588629304515
C           3.03790208566539    5.73892690768350   -6.43609238755544
C           4.03022164876025    6.02827328907378   -5.47711036627895
C           2.83450839206515    6.52234897218741   -7.61552009988146
N           1.81811559935695    6.33259138882707   -8.44739400372816
C           1.98084090793945    7.23157665441533   -9.43502681556321
C           3.19747688853522    8.05266566270973   -9.20618424797005
C           3.37579958679623    9.02730551965583  -10.30782426061331
O           4.24416876604299    9.85264139247677  -10.45015033000113
C           2.22456385762583    8.72921448090634  -11.18133280875140
C           1.40182337290332    7.63695461930769  -10.60623855094329
N           0.34655780153847    7.36027759047143  -11.41334998168978
C           0.46490271740305    8.18237282009499  -12.42493788588253
C           1.61570444703292    9.06296226198220  -12.34598428470135
C           3.73315648605913    7.59896793058952   -8.05375759955469
H          -0.99636128709273    1.95290388061899   -0.38665228948423
H          -4.35206866305122    4.90731774925041   -6.46577987527239
H          -1.89180828255194    6.01785727466597   -6.59939566372677
H           5.71175595438409    2.64549601804106   -0.23764101725259
H           2.06012676334252    5.18224339077787   -2.44651190859101
H          10.90419230896558    7.03404750527265   -1.24732075249375
H          10.11103165933245    7.79608332898563   -3.71476346527409
H           0.82539482940421    4.50487196962974   -7.64795243925898
H           4.70757231833432    6.86097862011654   -5.53884067775142
H          -0.25659145737191    8.16741187140948  -13.22363870369887
H           1.88591453052319    9.80175983232675  -13.07398482641226
H           4.62431977048786    7.91296353859774   -7.54831566096229
