82
 SCF done       -153.161338053766          0.000629460745
C           0.97456847195248    1.15960824843001   -3.12818123889281
N           0.60470075892624   -0.07757691692850   -3.25781539151904
C           1.66891125558535   -0.82158223069970   -2.84039315034490
C           2.77688101885280    0.05199673935479   -2.40578788920137
C           3.92092429791066   -0.76603612510577   -1.96456474697080
O           4.99027205059624   -0.40290188358698   -1.52635040868631
C           3.44074432869816   -2.14442570304776   -2.18349587940313
C           2.05400757988725   -2.12411146008351   -2.71347600324227
N           1.60875513073521   -3.39090680368724   -2.92559397427052
C           2.60039680223373   -4.16558257278971   -2.58046284843403
C           3.78062645587292   -3.45221382884168   -2.10939617286085
C           2.33674245289955    1.33671656997919   -2.59997017699130
C           2.99968510814152    2.59897644508455   -2.38290399106490
C           2.38296389714294    3.80632307138445   -2.71309764564137
C           3.04519290280351    5.00609200801124   -2.52750259447497
N           2.31685478285232    6.21963702320332   -2.79786641335856
O           1.35163194698453    6.14050013896022   -3.52620366195903
O           2.69148963479921    7.23643317124177   -2.25189589219365
C           4.35607452140121    5.06184198833081   -2.02138639786586
C           4.94473149001101    3.84409396353127   -1.65853042644422
C           4.29125338250696    2.64570870764684   -1.83217712405115
C           5.09423949607655    6.30095140572921   -1.96771746743425
C           5.92903982149943    6.65517856219520   -0.96771474743648
C           6.63585257091559    7.89039817333717   -0.99891253267399
N           7.36481169497614    8.39374822578734    0.04988592851696
C           7.60877862309653    7.75220793901272    1.31915500929138
C           8.70064791386508    6.69019427490243    1.21550754589981
C           7.91604937048863    9.65369707552480   -0.24851891222915
O           8.58903437583562   10.29319691648181    0.53516260948984
C           7.48051044579332    9.92398477869944   -1.60128688784819
C           6.70295114318424    8.82056046386582   -2.03318867450314
C           6.27447810838374    9.08093658030412   -3.38937645135527
O           5.62544970460438    8.42464421520036   -4.17907454057983
N           6.81502068504251   10.34285680396368   -3.68737804158643
C           6.54269247675190   10.98534265090865   -4.95080905296980
C           5.42147680503145   12.01455244246155   -4.83135000927354
C           7.52853945934827   10.86131184731802   -2.63258207936727
C           8.16784354502710   12.12756609788081   -2.66873953894730
C           8.84719568392521   12.63796193941172   -1.61304613404256
C           9.47644382782144   13.92439762715634   -1.59437470304746
C           9.67704375082299   14.74969429854787   -2.71873181709500
N          10.19657616494602   15.94702521243879   -2.63591307193849
C          10.57336485575269   16.38434703904835   -1.43302066137072
N          10.49662993042678   15.66139177798278   -0.30787241105505
C           9.96048909310918   14.46947678695197   -0.38820800893587
C          11.09906402959485   17.72218817315237   -1.31848679412035
N          11.21372510496577   18.53884300774710   -2.35132230395005
C          11.71095024983090   19.68489746931489   -1.84804990835807
C          11.92539528178612   19.56984850427823   -0.37851954135222
C          12.46294458909513   20.83728553887277    0.16394952611799
O          12.75467954216696   21.10837865393347    1.30361665582327
C          12.54893824248342   21.68629210808685   -1.04103008349348
C          12.08248475782712   20.94228999965735   -2.23838981888018
N          12.16110444656054   21.72613965281631   -3.34426851217465
C          12.62970729236362   22.87100995904507   -2.92076755376547
C          12.89451211877985   22.91636298262145   -1.49300522532726
C          11.53491747362048   18.31965774373855   -0.05191776991381
H           0.29503072796617    1.94893359122921   -3.39737873519272
H           2.50710282525514   -5.23533731067493   -2.65375892997659
H           4.69484238532957   -3.90902073989922   -1.78568455828759
H           1.37986586166366    3.84049413701966   -3.10896896524498
H           5.95245569279881    3.85078060073243   -1.27262746358328
H           4.78258112644450    1.72500181222453   -1.55549000006783
H           4.96423362878208    6.97910098633085   -2.80243110364398
H           6.02690053611376    6.03247165403761   -0.08968980407044
H           6.67723188840653    7.32071958200665    1.69529632609440
H           7.93149287580740    8.54294408795611    2.00200052896615
H           8.42610998739899    5.91398272665775    0.50471709403198
H           8.86304684095164    6.23332686717780    2.18759641152802
H           9.63117448588030    7.14580744401458    0.88618303500636
H           6.23514808752118   10.18830191609921   -5.63348890067455
H           7.45809393278974   11.44288319740700   -5.33599829187371
H           4.50896925216559   11.52882753896146   -4.49505825068978
H           5.23569224064644   12.47016372868691   -5.79982620023472
H           5.67941992776232   12.79588270664930   -4.11968648689224
H           8.07905537361445   12.69635875256056   -3.58263069762512
H           8.90742012882989   12.06508693771865   -0.69632395559184
H           9.41960819256400   14.42461677979274   -3.71858997830963
H           9.89418994036306   13.90751658249491    0.53553596905823
H          12.79004033804079   23.68120661518932   -3.61130629751340
H          13.27865629128073   23.76189660025582   -0.95761256819512
H          11.51639648502342   17.81246572664386    0.89125983073871
