60
 SCF done       -116.655592126686          0.000757299740
C           3.97578740667105    3.78259477525488    3.98323584544219
N           4.59519133540010    3.85108944850218    5.12501488123238
C           5.91775985375439    3.95791565776197    4.81680649015293
C           6.11131455957659    3.96361514587551    3.35108131385091
C           7.54092326973790    4.06389140969826    3.03332523169791
O           8.08261663688715    4.09120860146959    1.94289843320253
C           8.17302621587148    4.12897739100629    4.35863619354177
C           7.13788065110844    4.06179379071639    5.42135879974775
N           7.71653593018494    4.12863158286672    6.64805294712103
C           8.99860773560341    4.23050743774277    6.41973857814135
C           9.35621322953187    4.23745930000658    5.00876637159253
C           4.85486078547558    3.85001564358605    2.81149327017213
C           4.44886609701474    3.79032199344431    1.42823436361841
C           5.34622946405050    4.16500558924672    0.42950662023985
C           4.99018259537604    4.05147999511225   -0.91289645669667
C           3.67830329394335    3.62570610394887   -1.18038327754723
N           2.82187419386394    3.27983710686613   -0.24354182978417
C           3.18743293820840    3.33371875237820    1.02231377474294
C           5.92644937032456    4.35683530039571   -1.96018759061137
S           5.39787772002595    4.62612847631659   -3.59926695641344
C           7.00742414465277    4.87477797809949   -4.20777282245617
C           7.92468284382082    4.74982449661359   -3.17385324900182
C           7.30466649618387    4.46816449791089   -1.90899407746123
N           8.28257662375428    4.36996356866308   -0.97025526351922
C           9.49232393605340    4.59848538306923   -1.58797110171389
C          10.69930522522207    4.57857653425964   -0.87283097629318
N          11.69509954690844    4.57071887758089   -0.30373402164421
C           9.31805676004826    4.83893267880356   -2.93365768405101
C           7.22618629696707    5.16743801506717   -5.59759244514915
C           6.21234138279498    5.67850141422106   -6.40590472716277
C           6.47488500755422    5.97843410984080   -7.74433485859964
C           7.77625409508084    5.75214970688158   -8.21794932022629
N           8.72600313318173    5.22794829084317   -7.47020157002456
C           8.46821538654127    4.93139475112415   -6.21401646068283
C           5.43423006650051    6.54306277065719   -8.56519747736915
N           4.26499581570463    6.88107663506970   -8.04280928883139
C           3.54216882657961    7.38948626337670   -9.05768582413542
C           4.32425882295289    7.36726415722487  -10.32252385287022
C           3.52564742259598    7.93369001887824  -11.43308841796967
O           3.83879253467346    8.07293809491459  -12.59056312480035
C           2.25904977796176    8.28416621988486  -10.76320438266452
C           2.31582564252139    7.93226061749325   -9.32213121240142
N           1.14977512885114    8.25647531172498   -8.70764649727707
C           0.39967833748207    8.77245494874608   -9.64670838891572
C           1.02917824561224    8.82148910636566  -10.95401926979303
C           5.52011251001921    6.82982312958965  -10.00203550016288
H           2.90361207441849    3.69792846272463    3.95380449126577
H           9.69327801178580    4.30262254581922    7.23853140640728
H          10.35134435376919    4.31423038155213    4.61736303933923
H           6.30384800059516    4.56840119146777    0.70697255201394
H           3.31765929389510    3.56116630388127   -2.19881855216578
H           2.45092465321878    2.99233952541704    1.73560716585148
H           8.19068126447691    4.16709211484225    0.01660516791922
H          10.09776682883239    5.06190322248021   -3.63304367836219
H           5.22155394293677    5.85947625777915   -6.01612614747733
H           8.06642931615903    6.00268295108598   -9.22799508274599
H           9.27533318406010    4.46323211590740   -5.66990839058003
H          -0.59430410043512    9.11753595314554   -9.41911896660019
H           0.58016570872532    9.20763962240819  -11.84746567362036
H           6.36505017473146    6.63508827238496  -10.63136251951640
