66
 SCF done       -123.997204364449          0.000995382614
C           3.36804205080005   -0.03580692758368   -0.09065719278470
N           2.53684297509267   -1.02703527614181   -0.11114279543361
C           1.28861380246388   -0.46380585889626   -0.10949521708957
C           1.37696668498747    1.00204572551488   -0.08792200382337
C           0.03427751191115    1.60898881163769   -0.08431152542164
O          -0.27339779719988    2.77597755267081   -0.06811064358564
C          -0.84575948405140    0.41580970001442   -0.10602736354904
C          -0.02876009164787   -0.82390255299215   -0.12087421911801
N          -0.83057209796267   -1.92209413273281   -0.14038103447989
C          -2.04930541273263   -1.45571956133806   -0.13860002630189
C          -2.13263168456918   -0.00034838828161   -0.11707560597392
C           2.71950925799650    1.29033180778368   -0.07617128038024
C           3.39272865983100    2.49307042066407   -0.05316438844817
C           4.01740540954163    3.54223979586288   -0.03463997478335
C           4.72407877358337    4.67578660601427   -0.01125577208309
C           5.38924457106625    5.69974531713452    0.01906715257320
C           6.16681331997892    6.83866594059936    0.06389895325687
N           7.54125516355802    6.79632156412012    0.13028521211018
C           8.34077231042924    5.59649896978889    0.09805651639894
C           8.41207315349621    5.00365333022704   -1.30639994059629
C           8.09681010240179    8.08107707250855    0.18805512166321
O           9.29199119631780    8.29742557853958    0.25229839939101
C           6.95223707058722    8.96751964130159    0.15987998333739
C           5.78125505513039    8.17468385557268    0.07734597543044
C           4.63265383341350    9.05800916778046    0.06062922377140
O           3.44297772651072    8.85545841881362   -0.00020305686205
N           5.20121873290774   10.35005823385910    0.14668886846202
C           4.36923111543335   11.52827718713769    0.11047935633394
C           4.35730918373357   12.17303564136055   -1.27339486182973
C           6.57245479786133   10.31095632047180    0.20657484472877
C           7.39477390004638   11.45763687017079    0.33059064918555
C           8.75068360663977   11.37252293691907    0.41500126316789
C           9.57152939314910   12.46881995742585    0.57901900310759
C          10.33529595299739   13.41010696788780    0.74048002040630
C          11.17641907325071   14.42868693249217    0.93840664074545
C          11.96157039042022   15.34628007267758    1.12951559323509
C          12.83382336117538   16.39393047455879    1.35098327561501
N          14.04706085093807   16.22561372618041    1.87144515291800
C          14.58034326065225   17.45399255111123    1.93270857682627
C          13.63491663406888   18.47646956451596    1.40948413313060
C          14.24036719850628   19.82619296855713    1.48418319370639
O          13.76298565345260   20.88302121386252    1.14562860181753
C          15.56172869326650   19.54689981478082    2.07232704697177
C          15.72581644184238   18.09642807338857    2.32851304748870
N          16.94079652691508   17.84297103298115    2.87134736011117
C          17.52530030446412   19.01226429606328    2.96472492811088
C          16.72241566623866   20.11831296453721    2.48419607620326
C          12.52713352036610   17.79924766036519    1.04359627372641
H           4.43226857169884   -0.19682478797920   -0.08722953655622
H          -2.88995502908109   -2.12776762121685   -0.15189465448116
H          -3.04028323888648    0.56997133122716   -0.11179765957514
H           7.91816884503611    4.86817751630256    0.79734109253175
H           9.34017786127875    5.88462886614945    0.43489207159984
H           7.41983967197500    4.72676833716491   -1.65666493692059
H           9.03877640134044    4.11662199991573   -1.29799836882888
H           8.84048664902718    5.72531302645689   -1.99799103830289
H           4.70545361194168   12.23946057238545    0.87031080223666
H           3.36039374944595   11.19166822240031    0.36556883643137
H           5.35734601377794   12.48041573813383   -1.57211192505509
H           3.71071584479002   13.04596007900750   -1.26611039866180
H           3.97792866226667   11.46690929627879   -2.00789272337725
H           6.91794280009608   12.42666758452012    0.38137090155212
H           9.24418115909561   10.40684638719693    0.36788638579956
H          18.51885717737781   19.09050906419770    3.37142501068601
H          17.02032310484402   21.14801371669898    2.47528206413930
H          11.60599182463745   18.14588863123122    0.61822053522179
