92
 SCF done       -175.048466652482          0.000468785487
C          -1.10087837118279   -0.87878808842872   -2.69625035500531
S          -1.16609003485019    0.81903605888297   -2.91179427433497
C           0.47880153170633    0.82732478571674   -3.45488907164038
C           1.36675501858630    1.82538445538746   -3.87657340267401
C           2.59103375933175    1.30459865036789   -4.20340136056380
C           3.74019415628897    2.09395218081132   -4.67688045231295
O           3.67417658581483    3.28502087312141   -4.81452651698776
O           4.86941781800929    1.42072266446028   -4.94814978328415
S           2.65098417606345   -0.43404519327055   -3.99161337284838
C           1.01518215768188   -0.45745149426672   -3.45727078623279
C           0.10793854926802   -1.46277741000602   -3.01616243392950
C           0.37737531148696   -2.86512640816993   -2.90066265205339
C          -0.47220940361059   -3.83250035326478   -2.41988325441278
C           0.17566475105282   -5.09720057042977   -2.48076721180376
C           1.52149275266730   -4.84315104487107   -3.02929317862813
C           1.62847400146001   -3.51005810559588   -3.26940511213877
C           2.55859420170011   -5.76935648243432   -3.19100066600949
N           3.45379440679923   -6.48046891435993   -3.29993251039767
C          -0.33172633753845   -6.31855584530514   -2.09409729826228
C           0.27112347552080   -7.59488115754078   -2.23967517328261
C          -0.53192661991594   -8.55113330029402   -1.63988186314837
C          -1.70383461081042   -7.87324006068601   -1.10953328256331
C          -1.60872864870473   -6.54762831840100   -1.39862504356519
C          -2.56958285627639   -5.58930558786314   -1.06001010146442
N          -3.37988969246638   -4.82870996941676   -0.76784535859434
C          -0.21130222080597   -9.93155286442908   -1.60875833750152
N          -0.68109418218518  -10.87858298429688   -0.73480145476794
C          -1.58981634032879  -10.70520169004171    0.37416083060702
C          -3.02852837581047  -11.02355899737393   -0.02630088047133
C          -0.11842946591076  -12.14495153580138   -0.97980381138434
O          -0.37053103454022  -13.12501454363016   -0.30745330752528
C           0.75025247889545  -11.94180702944277   -2.11820370700187
C           0.68433029889911  -10.58077080003459   -2.47051343252793
C           1.50270277149808  -10.38143956050288   -3.65389089224638
O           1.72303951019326   -9.40886190278544   -4.33843823009195
N           2.03214612730337  -11.65959697997071   -3.92232334824107
C           2.96512848827803  -11.86318697129680   -5.00560674135324
C           4.40797150723832  -11.90117551354745   -4.50978949295099
C           1.60335735152170  -12.60043694023911   -3.02140152217522
C           1.96687071788458  -13.96000799843093   -3.06039939713523
C           1.52263180213429  -14.86130966987182   -2.13313325824681
C           1.83954605885655  -16.23604122541858   -2.12906559183717
C           2.61546257306016  -16.96976574994794   -3.01107386917401
C           2.63019758705907  -18.32859207075430   -2.60297908425079
C           1.80382709529917  -18.40115842900901   -1.38173488513792
C           1.34203336685855  -17.15362016677389   -1.11283587385339
C           1.53350212394471  -19.54148167475402   -0.61649255324953
N           1.29322550759556  -20.45731163299270    0.03396052283934
C           3.27249876317535  -19.38510272386147   -3.21511381338295
C           3.27044418249297  -20.74854257975895   -2.81834382346179
C           4.03174513361356  -21.48087931611267   -3.70239889554360
C           4.55141532051607  -20.57016590969067   -4.70986301578776
C           4.10431451158705  -19.31653481925115   -4.43172492371685
C           4.39697866922520  -18.17369975110223   -5.18199591405599
N           4.65083592142308  -17.24848937691245   -5.81498311190235
C           4.27602557936553  -22.87846599275388   -3.65707924062502
S           3.55040763829882  -23.84655686688965   -2.38405994882890
C           4.28773431805067  -25.26994587071882   -3.01765877299158
C           4.29713697778345  -26.62153138780666   -2.66079985342748
C           5.06552342178016  -27.36867170215544   -3.51887390624458
C           5.27233180637287  -28.82153230095426   -3.40516313337792
O           4.76238381012563  -29.46681635927682   -2.52996046841278
O           6.05880710792645  -29.39639854643390   -4.32959316240339
S           5.79228055241925  -26.40181247167156   -4.79073772617231
C           5.05180638118465  -24.97903017897240   -4.15629340245564
C           5.04735245592814  -23.63330249990051   -4.52044280010169
H          -1.97519215408080   -1.38444162965052   -2.33654802409400
H           1.14413417503003    2.87381946881680   -3.94333222031677
H           4.79862340355971    0.46835728253844   -4.79792433164684
H          -1.47259205104686   -3.68292609807726   -2.06769803082422
H           2.49302075443470   -3.00727598884623   -3.66091750548486
H           1.20075512594849   -7.78149042578275   -2.73940488529232
H          -2.53951260887296   -8.33524608249382   -0.62086309005075
H          -1.49108740592674   -9.69015744212290    0.76324079574684
H          -1.27414266901333  -11.41112364942789    1.14855954903465
H          -3.34765543847689  -10.41819374073210   -0.87228542621702
H          -3.69520789174038  -10.83933141902526    0.81161189994248
H          -3.10535987849112  -12.07075764894224   -0.30775601059612
H           2.83240903601177  -11.01368225187171   -5.68113912725884
H           2.71067082305285  -12.78275168328153   -5.53926475203715
H           4.65933163635600  -10.95984042598115   -4.02741295360537
H           5.07914697876350  -12.05118774379155   -5.35044402560447
H           4.55563116498540  -12.70928997329073   -3.79661921885395
H           2.61818844218602  -14.28914559154015   -3.85672021241269
H           0.87659312421118  -14.51605552413243   -1.33643917376650
H           3.12713754137547  -16.59351046227246   -3.87423503624368
H           0.71209253062895  -16.86231723930748   -0.29283517220162
H           2.75428856988840  -21.14170487552697   -1.96457074050293
H           5.18091227071679  -20.84898239550710   -5.53373179832061
H           3.77874052415104  -27.05305649088420   -1.82492685467914
H           6.40922930476202  -28.77197322368541   -4.97919242352817
H           5.57667231427593  -23.23084052510782   -5.36361248467647
