70
 SCF done       -144.809679929428          0.000670888681
O          18.32583701326008    2.69733717795920    1.61789436033510
C          17.26116625829932    2.42453156466251    2.10187829579932
O          16.90151509562532    1.15154914304242    2.32856714235785
C          16.28868669330153    3.46541769396595    2.47639829728945
C          16.48833674457444    4.81183268048696    2.32014260478058
C          15.38416810897359    5.54926446785868    2.76783218968527
S          14.99444782619607    7.23273216024045    2.84626974136430
C          13.46241371652708    6.86149427760950    3.53205494913941
C          13.21864807283136    5.51902376482961    3.70758747422950
C          12.01897517928802    4.96311141366479    4.26238443831579
S          11.99577775861234    3.29331453444073    4.82185599554689
C          10.35143998657875    3.41241797109969    5.33664268498169
C           9.85268050501296    4.64477594831391    5.09196416319462
C          10.78984794446083    5.53864468980336    4.47480372394325
C          10.11972626410746    6.78060421171171    4.23627377663165
C           8.82730340758452    6.71682854807676    4.69026595130443
C           7.87300481577656    7.76680668130084    4.61867796427528
C           6.61085501253189    7.69178505734040    5.10786413548152
C           5.66456575403767    8.73881047206752    5.04042838378626
S           6.00171108899858   10.28690428899983    4.25590201684751
C           4.43260879387750   10.90454080501792    4.63240198155394
C           3.69299341629845    9.99462761448643    5.30699173764641
C           4.38223232373024    8.76092241980831    5.54742157732925
C           3.52885638497307    7.89367474993400    6.29536940679614
C           2.33562119052140    8.52294043970043    6.52996420134831
C           1.20651683646559    8.15660480267824    7.31065373224035
C           1.14495788120317    7.17000375412011    8.23274331901644
C           0.07894981684575    7.02495573507760    9.17255406729342
S          -0.19617155102420    5.44085971282731    9.87368207721009
C          -1.52424213192077    6.04388257938532   10.79600489222422
C          -2.41725623794840    5.49363678984581   11.72085224719338
C          -3.29726908544959    6.43238250317875   12.19706130530748
C          -4.35625000536410    6.16593104260935   13.17983541184060
O          -4.53933349879549    5.06904805440386   13.63529177730199
O          -5.11757601151284    7.21040426049549   13.54983888127825
S          -3.02489168199076    8.02130124297066   11.49886617187236
C          -1.71850882680152    7.40551081071349   10.55634241779879
C          -0.80619664394641    7.98345902220282    9.65274467651224
C          -0.77639972933771    9.41540108796600    9.33651540180190
C          -1.95197003129692   10.10477992757048    9.04557780125499
C          -1.92051659367766   11.44645416776061    8.69747553769863
C          -0.71691175083632   12.11886556263564    8.60932011713244
C           0.45328899668305   11.43340152777425    8.91554429568198
N           1.72563378473117   12.09494838058651    8.77523914228882
O           1.72541605605755   13.29534951559653    8.62127381095169
O           2.72295480688286   11.40324875458323    8.81349170512096
C           0.43112363758840   10.10771202201193    9.31171105462939
C           2.35602827444348    9.89444696227391    5.91833531014215
O           1.46974892926400   10.71614081778010    5.96730922518384
C           8.57108655471887    5.35765786415772    5.27364751197453
O           7.55492252106576    4.93595017089314    5.77330288639059
C          14.34458201474911    4.76976372630420    3.26656691233427
S          14.72493685701576    3.09523840337479    3.18196607055142
H          16.02289375031446    1.06415437050988    2.72245577174977
H          17.38863337153317    5.22244914174923    1.90273705680847
H          12.81432052895291    7.67041058814607    3.80100256099793
H           9.87413423374228    2.56078768300462    5.77980483999058
H          10.55451639289391    7.63879845259021    3.75607312977916
H           8.19966011612196    8.68430311969022    4.14127715540119
H           6.27906377600840    6.78358273940345    5.59113234780774
H           4.17244942072904   11.89962363790806    4.32877840811247
H           3.79596992376098    6.90161304578340    6.61300441011175
H           0.36553098431284    8.82697840201291    7.19262539497085
H           1.94115587658538    6.44129220936374    8.30428223794792
H          -2.43569434909216    4.46867065983327   12.04108126265777
H          -4.86789810320231    8.03785299650749   13.11684755422842
H          -2.89547323076404    9.58004636548284    9.06716594194977
H          -2.84146532042746   11.96005524222474    8.46932066387804
H          -0.66081519137525   13.14931766200650    8.29618314761294
H           1.35843527613814    9.61847170561182    9.56693316182043
