84
 SCF done       -151.715881333733          0.000517730413
C           3.91719792284505   -0.46335919401030   -5.23619852648519
S           2.71406975884314   -1.50878931233010   -4.52760146320673
C           2.81178633817341   -0.57596392207125   -3.10101481983545
C           3.72706075419151    0.44002402991599   -3.25281591212231
N           4.33299030729046    0.47215386830761   -4.47579071013596
C           4.08102991932039    1.42026084375850   -2.27111933460920
S           5.26461129231285    2.63391541255307   -2.65878262953248
C           3.63370795012495    1.59380721031906   -0.98286210800633
C           2.68101774932813    0.95126897474331   -0.06902457472588
O           1.95989142118852   -0.00660331542401   -0.22605328116154
N           2.76462186445143    1.68582593165180    1.10546271680275
C           1.95697286474878    1.40361938370165    2.27267537674381
C           0.61569871789061    2.12530671527800    2.20549200933146
C           3.66589809180394    2.74108718335802    1.04580773792405
O           3.88398236374929    3.49521034937869    1.96719166192164
C           4.23501966739626    2.68491458816584   -0.30666242334624
C           5.15917053726125    3.37437408765872   -1.07103287418155
C           5.97442213646772    4.49895298832402   -0.78638263977382
C           5.99086996059336    5.12516923057265    0.41931957443865
C           6.81168223860812    6.24658469436527    0.68918449019322
N           6.85388609721183    6.87104304059652    1.91363503388656
C           6.15007337404131    6.47076749799025    3.10865072825305
C           6.82916417713890    5.29070977128217    3.79840963628636
C           7.74346404376842    7.96267919807788    1.92108993009420
O           7.94565994235215    8.66480174838959    2.88917742404567
C           8.26842330511860    7.99302947007449    0.57312065077387
C           7.68344469392112    6.93427282737359   -0.15706344711331
C           8.20904735579079    6.99466295820797   -1.50158529174274
O           8.00786419973002    6.30714090783614   -2.48403870095486
N           9.08008532040389    8.10270824233602   -1.49743698044745
C           9.82300268332197    8.43185259081184   -2.69045179750167
C          11.26654071584191    7.94037717072858   -2.61967810970815
C           9.13012008949806    8.70491936471638   -0.25915282634343
C           9.85790020164973    9.83380596119340    0.18937269312509
C          10.71544817138384   10.64960046979765   -0.47463369890978
C          11.36165109121846   11.75022303350967    0.13651094735626
S          11.16890188338344   12.20220885503696    1.82015788389569
C          12.23414239093249   12.63381755187651   -0.46243478360860
C          12.79908789574636   12.81397665494235   -1.80374886486254
O          12.63315821401243   12.17169279690598   -2.81322233748841
N          13.62327474099652   13.92774188953921   -1.68829285316450
C          14.36134339984155   14.48826007283930   -2.79955772049005
C          13.55465520148083   15.57018794966042   -3.50926525887141
C          13.64227417592782   14.48456769848528   -0.41410149797153
O          14.29711089012505   15.45299033682760   -0.10752766797171
C          12.73959494274481   13.64247944722042    0.38625817207496
C          12.26610205394693   13.56448648173139    1.68242404696987
C          12.51382824171790   14.35615981946394    2.83390542535508
C          13.33913807522305   15.42787406969329    2.86152197338872
C          13.55247543276372   16.18427935227461    4.04681683382524
S          14.63797377058559   17.57797212987324    4.03228260087818
C          14.28979516657378   17.80158477259015    5.69323088112529
C          13.41390424033844   16.84871260320988    6.13111897503619
N          13.01687503776523   15.96310423318362    5.20774863699149
H           4.26213099130694   -0.62006535375846   -6.23857759509900
H           2.21836696175683   -0.79814759620506   -2.23685179130356
H           2.52374452873555    1.73214776564974    3.14705147796147
H           1.80476508292993    0.32239539087641    2.31195384392625
H           0.76906270304709    3.20090983801183    2.15708830334818
H           0.02942007651044    1.89464580392294    3.09025359920416
H           0.06206590713834    1.80628337370448    1.32546939474578
H           6.60826985346086    4.85132204959251   -1.58984896428064
H           5.35524060428709    4.76411954988773    1.21393938301925
H           5.11498732554287    6.22300998473137    2.86183275551515
H           6.16248551507705    7.34124395284535    3.77059852500219
H           6.82954262862020    4.41494010192583    3.15405445325451
H           6.29590195020520    5.04753036716662    4.71282080825107
H           7.85658988389023    5.54431278875533    4.04887099650739
H           9.77708797966724    9.50853956598627   -2.86842125315751
H           9.30751243289846    7.92178920854882   -3.50998824717596
H          11.77848645053163    8.34720556921518   -1.75082685280841
H          11.80143386431092    8.24680791020185   -3.51405221422505
H          11.28473435413984    6.85512839475062   -2.55505473097963
H           9.66959876854160   10.05124310194651    1.23572980049083
H          10.96834449003076   10.51920797460544   -1.51583990032936
H          14.58771300929892   13.66849996669588   -3.48541484409747
H          15.28836414921264   14.90725629098387   -2.40048488110557
H          12.62902316433871   15.15385563373300   -3.90026951720453
H          14.13161625940296   15.97788325234106   -4.33442897343165
H          13.31707817158124   16.37471145437640   -2.81695604297112
H          12.00141773728695   14.06834694129961    3.74145188215741
H          13.86845426351174   15.74597649204456    1.97472529143128
H          14.73651196064094   18.60194107342859    6.24712197428266
H          13.03514585902264   16.76543843628574    7.13389041267882
