71
 SCF done       -142.012207088432          0.000518015558
C           0.95019275674284    1.87310386620152    4.84325249964984
S          -0.36257693345454    1.19417244051227    3.92109327304283
C           0.57623002751725    1.41730365038557    2.51229769869024
C           1.78969175599034    1.97778818400867    2.82988643177153
N           1.96859510369634    2.22266220689451    4.15751342305295
C           2.81787064650016    2.30380694918538    1.88783836699418
S           4.33637794496779    3.01285710604408    2.37958272310683
C           4.73849029042414    2.98951382665638    0.65820230807728
N           3.78084993277084    2.49202976160885   -0.06775557198455
N           2.72889609020521    2.11575335104633    0.60428122565033
C           5.98475974654307    3.48379546621612    0.17830668288181
C           6.28735471115324    3.49215918708061   -1.14152001892306
C           7.44788905867701    3.97498800375316   -1.80459587241801
N           8.59176119078266    4.54554168395506   -1.29074868887147
C           8.98939583689923    4.70369573999629    0.08708434234285
C           9.42165572501333    3.37864268044824    0.71049324765543
C           9.48684618851032    4.93706534990673   -2.31457732097828
O          10.55147912103916    5.47571924997000   -2.10166713361259
C           8.81640894308508    4.56104224282070   -3.53750345554473
C           7.57805005535634    3.97819454368316   -3.19277935580088
C           6.90775060299017    3.61126215912518   -4.42259645182847
O           5.85043284136442    3.06734364637599   -4.64558438129929
N           7.80110144793944    4.02280809751777   -5.44301083108034
C           7.46276516064391    3.77245300089408   -6.82394748800651
C           6.67706845708294    4.92884083209600   -7.43906781096451
C           8.93539028267340    4.59245719043088   -4.92487220099978
C          10.07189776715003    5.13484912078104   -5.58666581454878
C          10.19966229791221    5.50250141802236   -6.88035131792088
C          11.40176406297980    6.09243646873310   -7.40332288845865
C          11.38277302294599    7.12935659301224   -8.36065842714225
C          10.13386512554657    7.65999098873566   -8.94109367467890
O           9.00811483292793    7.33117629466919   -8.70009652060856
S          10.52741575872852    8.94468109479175  -10.11964625555065
C          12.29298484787128    8.83928107514019   -9.79121059429853
O          13.07729824918702    9.56889195577098  -10.31734743084160
C          12.54070155117415    7.76085457127501   -8.81314395746453
C          13.83225569716695    7.42039078440727   -8.35107614093173
C          13.85128294955533    6.31469993538906   -7.47771220301148
C          12.69516485632944    5.68210972865438   -7.03331890887564
C          13.11037964669085    4.45974140203371   -6.29998870950712
O          12.46275384050143    3.58209858185955   -5.82146090705530
O          14.48317795994580    4.43536512508785   -6.30829596990721
C          15.00110205804615    5.50589974654797   -6.99308976650214
O          16.17447443310030    5.64664258297666   -7.14379529096044
C          15.00766640025179    8.12152127318380   -8.78764029827272
C          16.09625393647018    8.34554952441114   -8.02470548089916
C          17.23731389490096    9.03875644994862   -8.52162747620189
S          18.62596976622614    9.33665256549322   -7.47307083996123
C          19.39413298383543   10.10237733195688   -8.79366871284109
C          18.58434528358028   10.08383390508709   -9.89602724033747
N          17.39625969254715    9.49268880425999   -9.72505937875391
H           0.88039254429695    1.97894200500663    5.90693313929463
H           0.22298043201138    1.14301856734418    1.54023996962206
H           6.65134348325756    3.85358286461576    0.93967602728407
H           5.54242848530637    3.09541865672205   -1.82040070725665
H           8.18386272955351    5.17491414410677    0.65549523877341
H           9.84270166002635    5.38905589250435    0.06796275602174
H           8.62569141669048    2.63930808081681    0.65930250961880
H           9.69378911057056    3.53210328045572    1.75119514259771
H          10.28647216816906    2.98848268774608    0.17970615036109
H           6.82974761472103    2.87927380163331   -6.82360575480258
H           8.37536232655600    3.55715457217830   -7.38332590156298
H           5.74908054082450    5.06908357180911   -6.89056422546781
H           6.43630441609898    4.69759194875251   -8.47295524849232
H           7.23733450399464    5.86012923632394   -7.41380817534354
H          10.88780592114010    5.32494999070960   -4.90127829072975
H           9.36143024552447    5.46907787763048   -7.55654463182877
H          14.98945524254361    8.54984405766514   -9.77968062250197
H          16.14521326490956    8.03089645075794   -6.99339933834740
H          20.37720620301036   10.51608268778565   -8.69589931513215
H          18.83089979006406   10.49911188640956  -10.85634015717804
