48
 SCF done        -90.564770458223          0.000430763124
C           1.19314859030259   -0.66881144250240    2.99591943749145
S          -0.09686768152580   -1.03345160919224    1.88378742149325
C           0.84531799976970   -0.33269307978710    0.64077787806084
C           2.04165444794271    0.11659577500329    1.14226693321259
N           2.20597540569916   -0.08926992033241    2.47870629199879
C           3.06994099487681    0.75411467940167    0.37382489957422
S           4.57582174054006    1.28274822470260    1.09421904193877
C           4.99841803000672    1.82291599125781   -0.53252892409678
N           4.05513250040554    1.58240367294448   -1.39780974382611
N           2.99667126846155    0.99540267945617   -0.89862177515249
C           6.24832964053881    2.43576205014936   -0.81922697157272
C           6.58314317293951    2.84061885711390   -2.06619906877156
C           7.81814230777342    3.43300388337905   -2.43435267076952
N           8.06183382559410    3.79119305227127   -3.74620391311039
C           9.31526064164930    4.30503539039731   -3.83058368136991
C          10.25874813413552    4.83467406553020   -4.70539611557015
C          11.38873317080729    5.12107885541404   -3.92974746549155
N          11.13701961546405    4.78061451075550   -2.61438313439241
C           9.88035072303911    4.27648080666819   -2.52895347319154
C           8.94234466152193    3.73228658386207   -1.65666489435916
C          12.64946735264460    5.64554561612476   -4.30750575353197
C          13.01421104746869    5.99084062185552   -5.56545040361085
C          14.31463966975047    6.47340917048642   -5.86404374302104
S          14.80521081446159    6.89268470144665   -7.50509047683648
C          16.37686478908502    7.27329911926676   -6.79444501736378
N          16.39755703515248    7.07763177459681   -5.50967751620361
N          15.27859605042923    6.64293341890445   -5.00148691606800
C          17.46637398873871    7.72884136299671   -7.58850114782155
C          18.68108846345596    8.00838048467542   -7.07515787452598
C          19.79161382758059    8.45242957306686   -7.84538513825834
S          19.69835676194539    8.68532873790701   -9.60079937642802
C          21.34365151694290    9.16336486611576   -9.57191329086993
C          21.83329312930993    9.11839586551219   -8.29996970851557
N          20.96069979055146    8.72285599207085   -7.36027721792961
H           1.11482653037918   -0.92461597649303    4.03330406646085
H           0.50324910226304   -0.27806560730150   -0.37148467611330
H           6.92803773031057    2.55677400423781    0.00960614790729
H           5.85499535885368    2.69224238063668   -2.85258789264337
H           7.40486281071669    3.67062600546272   -4.49778757279311
H          10.16377477861634    4.99600297600110   -5.75967381870763
H          11.79884299862501    4.88765774021355   -1.86500431872494
H           9.04043518996408    3.56422323897859   -0.60382407663191
H          13.38602984480376    5.76634491428461   -3.52412763523042
H          12.32795917241715    5.89799657301343   -6.39269510556984
H          17.27732619522641    7.83730931915315   -8.64820539976790
H          18.85741159030792    7.89421633968440   -6.01549840838175
H          21.84613002972166    9.44424613010236  -10.47502210385704
H          22.83748524032808    9.36977763049494   -8.00985569704322
