76
 SCF done       -134.442107052148          0.000655527083
C           0.81688915728177    0.88205571931122    4.34089127621246
S           1.77386881862108    0.99025432205097    5.79088841652608
C           3.03626073281466    1.64770953832472    4.84145559049707
C           2.65806344839292    1.73642681465916    3.52396393624313
N           1.39094096280376    1.29210247793756    3.27726580528712
C           3.45533047754669    2.23902534077972    2.44130851798133
S           5.06975653155247    2.82363992228644    2.67942133657479
C           5.24477667156092    3.20060353606572    0.98981569563629
C           4.07493153543767    2.87095012036389    0.29818556553570
C           3.07382179838652    2.32993128302061    1.12625764241972
C           3.87156727001522    3.05108611468907   -1.07888149031591
N           3.66520481988021    3.18577037452174   -2.20056617684001
C           6.46115975626284    3.76900563099591    0.54520640235948
C           6.74474578211428    4.11006856861324   -0.74166788522531
C           7.97327950180633    4.70060328388388   -1.11477725341476
N           8.27557947460795    5.07618295452331   -2.40076504906997
C           7.41659008606991    4.97217366052664   -3.55678364752761
C           6.36791698396000    6.08043730417677   -3.59111988840569
C           9.55322762964004    5.65565605158553   -2.49502214617506
O          10.03006279964228    6.06138459530378   -3.53506127559088
C          10.06746008103133    5.61145413696112   -1.14236190336971
C           9.08131181220592    5.01885474833166   -0.32214481061400
C           9.59604281056894    4.96534447918201    1.02801883403013
O           9.11626957157443    4.55364992273780    2.06798955021616
N          10.87202340681715    5.53747404565768    0.93642554240194
C          11.73234514702921    5.62587817418798    2.09119419276054
C          12.77902149340787    4.51430881948047    2.10664936994537
C          11.17544988982156    5.93210075550576   -0.35016585925739
C          12.38331139704937    6.56018990441989   -0.71239470535524
C          12.64648261408579    6.98698745055850   -1.98313023064675
C          13.83026739709417    7.64702133205206   -2.37683106416738
C          14.08441557302399    8.15576239768544   -3.63980885250181
C          15.36449062161164    8.76576384074573   -3.65597006221635
C          15.91397109536208    8.59266597912856   -2.29774468453000
C          14.99282210797516    7.93266613423461   -1.54829891415113
C          17.15823867355008    9.02168504144035   -1.82391415567236
N          18.17052718387268    9.34806076771644   -1.38871386271760
C          15.98593111138602    9.41015759944420   -4.70639261013238
C          17.27131419950259   10.01447720169112   -4.72117499628312
C          17.51178304617622   10.55565572000387   -5.96799894735764
C          16.34039946386902   10.29716459346735   -6.79363186922103
C          15.42575371331195    9.61535923032495   -6.05552244034578
C          14.17435924473229    9.20469402305528   -6.52729475832186
N          13.15878570430512    8.89066658432978   -6.96330845504671
C          18.69041119711516   11.23761885611021   -6.36374396854348
C          18.90777833485119   11.76697322678085   -7.59324135462078
C          20.11116849575872   12.43874350160299   -7.93311907447835
S          20.33280937620317   13.11272445949172   -9.55754886398155
C          21.88220590084887   13.64922423840903   -9.06739970105686
C          22.12032104077621   13.30031468274595   -7.76781875086149
N          21.13226392840308   12.63312140005050   -7.15785492455791
H          -0.18074736603885    0.49235398416230    4.36957597766204
H           3.97213546248905    1.93067407927523    5.27891916151778
H           2.10559570627568    2.01784451764626    0.77913640673774
H           7.20661164169778    3.94220243335173    1.31134250207118
H           6.01616628676603    3.93703081629875   -1.51827094286485
H           6.93927138025306    3.98881874799701   -3.57152937681127
H           8.07248925995933    5.06177080021091   -4.42727057076889
H           5.71424562527319    6.02789584307452   -2.72347383043305
H           5.76213998945321    5.97984268294373   -4.48682832811759
H           6.85399271866831    7.05297929783269   -3.60529200662553
H          11.07904901288807    5.52516201768597    2.96255799193412
H          12.20690292222008    6.61080520657195    2.12078128598022
H          12.28804312552239    3.54450408193838    2.12826946394298
H          13.40307848073528    4.60765497127235    2.99119115510387
H          13.41225075243629    4.56038051503547    1.22328597606426
H          13.11376937136624    6.71993392272508    0.06725499671207
H          11.90525234433166    6.83010411964274   -2.75583016715262
H          13.41341171940343    8.10248730161080   -4.47466012746075
H          15.10939656588222    7.66064769706585   -0.51563329995788
H          17.94751035662071   10.04075321841075   -3.88936774384453
H          16.21999742033526   10.59758723185212   -7.81749838020024
H          19.47015487750386   11.33838657857411   -5.62116148333750
H          18.16498063479945   11.69887983314383   -8.37449621345726
H          22.51945354477506   14.17973896596928   -9.74513933089751
H          23.02002829459877   13.51940027456150   -7.22147615798232
