127
 SCF done       -206.854942836609          0.000664733172
C           2.47225700840968   -3.47542901511582    2.98419941807865
S           1.27674102346591   -4.59891957042035    3.44153232517486
C           1.37255991740488   -5.45427855212609    1.92580574645098
C           2.36094625340565   -4.87931893374553    1.11316254989003
C           2.97084788939285   -3.73185257329775    1.72354602544143
C           3.96439826667947   -2.99248277060097    1.04188982605266
C           4.36982580111847   -3.39459936951745   -0.20041079307826
S           5.53546492378040   -2.54122552511167   -1.20205495510067
C           5.82393201643225   -0.98293548878653   -0.28872896360477
C           6.68876303599184   -0.07433410754680   -1.14169631792010
C           3.83702297047568   -4.59138179476336   -0.76098602540482
S           4.43908278063560   -5.15508500912683   -2.33724610386378
C           6.05750793598750   -5.84379275050042   -1.82394099159398
C           5.89606071222092   -7.06489257219233   -0.94161803704752
C           2.85794988622189   -5.30640016348630   -0.13399862971145
C           0.46800738558073   -6.52160126076938    1.72830110883635
C           0.14457654958662   -7.08772798951147    0.53185721721999
C          -0.76760879748824   -8.13866735679926    0.30382051341603
S          -1.31433256107140   -8.34920917463584   -1.32866259279087
C          -2.41200582083081   -9.62684168227407   -0.90571269658960
C          -2.32095653585989   -9.90801763939577    0.47344328315355
C          -1.37797589534335   -9.08592640881114    1.15691347804840
C          -1.13617359964535   -9.32844679407446    2.51644333168850
C          -1.83373026061970  -10.30002254545061    3.20160608256963
C          -1.56898763925807  -10.52324363886534    4.62231374246632
C          -0.38705129143071  -10.37410857461503    5.20551542588547
C          -2.81570755932649  -11.07943771065106    2.52730828297551
C          -3.57935470705728  -12.13690982355749    3.26306720357342
C          -3.03094989898266  -10.88623537250650    1.18702426512323
C          -3.23772972787788  -10.23472100984784   -1.85924763341673
C          -3.23663329935010   -9.91935794692358   -3.18910169014770
C          -4.08774766981887  -10.52132105030535   -4.13263488832744
O          -4.99752700060905  -11.45670553197430   -3.77091297731340
C          -5.66916890501451  -11.89811720667939   -4.87042378595895
C          -5.17370376069825  -11.22159194654014   -5.99369665253311
C          -4.16262481861320  -10.33796867927356   -5.51627068420126
N          -3.27498260812946   -9.56913820527256   -6.30113591501567
O          -2.72003283402555   -8.62646200297013   -5.76352424000371
O          -3.08448817544425   -9.92904180286524   -7.44521137346203
N          -5.67072401503129  -11.20647908224974   -7.32008219766502
O          -6.04910155464655  -12.25549363002660   -7.81404048343935
O          -5.71827451455063  -10.12774492381787   -7.87237075654417
C          -6.70957264122879  -12.81716199476049   -4.62853670877498
C          -7.45554543818524  -13.45988322932363   -5.57666414432241
C          -8.52275409760735  -14.32224062336948   -5.32184479373674
S          -9.09941670820115  -14.69112864077547   -3.71986173167083
C         -10.35951623955934  -15.73118871459839   -4.30902938105354
C         -10.33371468940017  -15.78944966311666   -5.72000090085873
C          -9.30142494881003  -14.99713523310614   -6.28919791023460
C          -9.15654322082265  -14.95626812967379   -7.68002837746635
C         -10.02098039774041  -15.65192186475702   -8.50209568608206
C          -9.81734095426103  -15.50300434681927   -9.94474855400665
C         -10.76109683582883  -15.36331451105772  -10.86515187911952
C         -11.03395444982645  -16.47265800366385   -7.93169444010964
C         -11.93673563850310  -17.31709875262321   -8.77874275949407
C         -11.17165278596521  -16.53001429630939   -6.56577230982429
C         -11.25582176050476  -16.38870729027497   -3.45803110899468
C         -11.24791769527048  -16.32130673940233   -2.09298731489350
C         -12.16665460634640  -16.98333513214169   -1.26565013040898
S         -13.45533890623892  -17.95576237196713   -1.91219067196890
C         -14.06838798649206  -18.36506749223143   -0.34454735738878
C         -13.29514176895609  -17.76732893235484    0.65738248997522
C         -12.21977799230183  -16.98356605915540    0.13920536323032
C         -11.36642346024709  -16.31325399393736    1.03186074636006
C         -11.57014026637188  -16.42345800769918    2.37820777247668
S         -10.46726154701832  -15.58810548959072    3.49302018487341
C         -11.58209076062817  -14.27969284224405    4.15565215807600
C         -11.39645532672210  -14.12482233155077    5.65073329712991
C         -12.61600551912204  -17.23363803248276    2.90248384865329
S         -12.68668708726669  -17.34424945893005    4.65613330843203
C         -14.04667833466814  -18.52647732967826    4.96747884406624
C         -14.16291355689489  -18.74979599690489    6.46340293001871
C         -13.47227283451796  -17.88058292242183    2.05101796244938
C         -15.21252628571400  -19.20301155291243   -0.18581929716440
C         -15.91422137229068  -19.74253009022477   -1.18568580711699
H           2.74867012831327   -2.68416924554055    3.65197729598391
H           4.37252411647042   -2.12096916157193    1.52696308408710
H           6.32083787312430   -1.22470435225130    0.65152792372442
H           4.85166531935166   -0.52926323896756   -0.09457927452474
H           7.64491538670486   -0.54745138694615   -1.35375121761365
H           6.87037547189396    0.86239849001886   -0.61900216386102
H           6.19523324846290    0.14179085582209   -2.08636422610381
H           6.61607922677531   -5.05288320182033   -1.32596703683514
H           6.54850369775650   -6.09415446580711   -2.76291438801406
H           5.38196725122728   -6.80583493496960   -0.01735154175973
H           6.87376524583786   -7.47244074861423   -0.69179196189063
H           5.31926705966938   -7.83032417443711   -1.45553626839766
H           2.50222489021995   -6.21075223685755   -0.59759624393245
H          -0.05950977764752   -6.83330662400577    2.61833323137344
H           0.54889288614308   -6.64918161703974   -0.36925643748596
H          -0.38899523541522   -8.75783268636766    3.04085656932865
H          -2.41506127369643  -10.83912117851006    5.21727553963665
H           0.49628467267104  -10.09871105955302    4.65368469784400
H          -0.25367250404266  -10.54356984995701    6.26017564895127
H          -2.89976214905182  -12.82080494124386    3.76914878439498
H          -4.20022552393376  -12.70736462829492    2.57710040474624
H          -4.22782705083589  -11.68790787991641    4.01556531276075
H          -3.75072081634770  -11.50067056305392    0.66749407605756
H          -3.92031339461749  -10.99644392931267   -1.50855714666585
H          -2.56787017592268   -9.16322099568833   -3.57358297576115
H          -6.89735459927587  -13.01094940211907   -3.58017059128691
H          -7.21669022098016  -13.30858965197232   -6.61884095359911
H          -8.37414506135008  -14.35669233113307   -8.11996296242008
H          -8.77774777148955  -15.43749141683801  -10.24219826505405
H         -11.81014575021903  -15.35538418968229  -10.62643886686295
H         -10.50999594276614  -15.21809097773375  -11.90213259329231
H         -12.83602433152567  -16.76330016363763   -9.04821091305368
H         -12.24753560371071  -18.20225720635800   -8.22743225225361
H         -11.43956890384180  -17.62548166319928   -9.69471247771259
H         -11.93598009111666  -17.16094527710203   -6.13669880500187
H         -12.01400135062708  -16.99572900178170   -3.93524072041834
H         -10.48995113943341  -15.72477254771089   -1.60343658981741
H         -10.55090291540503  -15.70946531548894    0.66771473283967
H         -12.60026127285218  -14.57350503480987    3.90928510111902
H         -11.33048326278933  -13.36057969863971    3.62593504124308
H         -11.63894725855429  -15.05613843841094    6.15637816324554
H         -12.04889288607769  -13.33835376098259    6.02498496479210
H         -10.36602513365255  -13.86419656358728    5.87966119316715
H         -13.80597061376044  -19.45666166199526    4.45158414416448
H         -14.96622234042129  -18.09888563432806    4.56612102719735
H         -13.23269863685735  -19.14875880491756    6.86130630691341
H         -14.96362134020109  -19.45638772640221    6.67115392165517
H         -14.38214990517353  -17.81397915574664    6.97260056731100
H         -14.27580657748857  -18.49256380999417    2.42450747082491
H         -15.50899520984544  -19.39398432724403    0.83707312523906
H         -15.64866042875337  -19.57021963983539   -2.21527961010975
H         -16.77053481737634  -20.36536558505029   -1.00075992767340
