157
 SCF done       -235.253800795687          0.000664781151
C          -4.79431512594637   -0.17820469250486    5.16936481281811
S          -4.11553970847968   -1.74307560416297    5.25143041282242
C          -5.13930598716705   -2.34613864221368    3.97306121441877
C          -5.98080519856684   -1.32083917164800    3.51110253866403
C          -5.77510255830153   -0.08503939024452    4.20722062293289
C          -6.54913923681053    1.04488814828150    3.85265935124884
C          -7.47730208194219    0.93590282536170    2.86411282765549
S          -8.45170431945602    2.35835691480896    2.41390832347923
C          -7.55000264926617    2.86974504615329    0.90343112236589
C          -6.16213346686007    3.38970724483236    1.21760002041749
C          -7.70441739856244   -0.29776893785301    2.18701433344174
S          -8.97364828921190   -0.25995349131095    0.96931274849939
C          -9.19889226193928   -2.00108658241672    0.47420955086944
C          -9.91682764494933   -2.81356274329397    1.53530692855130
C          -6.95179766502574   -1.40090768744743    2.49961953455474
C          -5.08090359741457   -3.67735222053199    3.53390693737514
C          -4.25054818589638   -4.63367555448473    4.04641454078418
C          -4.20173232746670   -5.96420929610582    3.61555538766425
S          -5.21481498717857   -6.55869111589857    2.32892556896124
C          -4.56948630489677   -8.17442592326878    2.43241616829090
C          -3.59441273262410   -8.24321582218002    3.44953132163543
C          -3.38429705733601   -7.00116074916448    4.11094762788826
C          -2.44619293397067   -6.90460039982934    5.15075894025567
C          -1.72122571165443   -8.00959419543044    5.52133027873772
S          -0.55587837211621   -8.05164430696427    6.83950741581444
C          -0.40739867085608   -6.31774167954599    7.38656134647403
C           0.40994866390305   -5.47609118761971    6.42411433117179
C          -1.92041100857195   -9.24152710884740    4.84521797377691
S          -0.99628125857185  -10.67254904137252    5.35462099005056
C           0.66349874183648  -10.24658841977484    4.67865228080717
C           1.75043154069378  -10.62319167231002    5.66371996258346
C          -2.84333940906963   -9.36231758049240    3.84310022814983
C          -4.99658081365178   -9.20672965695788    1.59432477976780
C          -5.89446561815288   -9.03834187066955    0.57110971410267
C          -6.37496107988641  -10.00259289003026   -0.32151601188890
S          -7.18463152333091   -9.43303818564411   -1.75337649285681
C          -7.40746408234530  -11.03384737818225   -2.40947611892775
C          -6.85188004918362  -11.99193874621708   -1.52769228428345
C          -6.31211471185467  -11.41428265948942   -0.33874191151644
C          -5.83652797492042  -12.26833046230263    0.67025095997298
C          -5.81422712360268  -13.62097546366003    0.47285505822282
S          -5.19197066199621  -14.68347794039647    1.75715414239839
C          -6.78814352650109  -15.35065895025195    2.38057092671287
C          -6.52199887315683  -16.52688084485949    3.29658770580157
C          -6.22400687583251  -14.18737544670221   -0.75778810438091
S          -6.01772909714836  -15.92543221788781   -0.90713514839540
C          -6.68170175963987  -16.30371888525871   -2.57044805688039
C          -6.58262060162673  -17.79924520487727   -2.80367585091768
C          -6.74675171594876  -13.37596949879212   -1.73675550684960
C          -8.06022222304104  -11.13202861353254   -3.64297710121631
C          -8.57072545249644  -12.26460700243891   -4.22779095679219
C          -9.14481719765274  -12.37822475670299   -5.49858360161379
S          -9.99787724362843  -13.86220649949333   -5.84331139404871
C         -10.46336569450707  -13.35317724211426   -7.44073292110481
C          -9.94201110313126  -12.06837297105982   -7.70491265545185
C          -9.18398719495779  -11.52683101221577   -6.62511107691014
C          -8.54518118117642  -10.28971268474413   -6.81365734941705
C          -8.71299398718600   -9.60341003159203   -7.98450626941549
S          -7.87705167763550   -8.04929468490952   -8.21458223171618
C          -9.29842383638106   -6.90853485371142   -7.95495051698680
C          -9.04618717534567   -5.60175232978766   -8.67738351187172
C          -9.49578667006387  -10.12318469198804   -9.04498888924471
S          -9.55873593492076   -9.12659170422041  -10.49391105002748
C         -10.74004300561245   -9.97966085633568  -11.59162319443108
C         -12.17929493112438   -9.79951928987506  -11.14598680765690
C         -10.09144467415181  -11.35169360201872   -8.90222257603154
C         -11.23223197021500  -14.16228641679866   -8.28131368855751
C         -11.66608883199602  -15.42140518274931   -7.96581162489528
C         -12.42812734411752  -16.23848734603014   -8.80962549219063
S         -12.95623115630293  -15.72241537653274  -10.38256099228785
C         -13.80779694555923  -17.20137502909595  -10.70312455670446
C         -13.65388986338575  -18.09216867098695   -9.63665051691362
C         -12.88332528645916  -17.54702240595453   -8.56108385207280
C         -12.66023929965217  -18.31262104850290   -7.40639862361539
C         -13.14880980182479  -19.58916852989151   -7.31920616918367
S         -12.86944522407328  -20.49294719040978   -5.80920694799884
C         -14.58763215514454  -20.59174232702778   -5.18834965454279
C         -15.12029494313923  -19.22617181586164   -4.80536729015704
C         -13.82681868190820  -20.16635599813308   -8.42023741442557
S         -14.36551563533347  -21.86741172383227   -8.39674714678625
C         -12.74098880185887  -22.70584416858696   -8.45945819779263
C         -12.03223070822337  -22.45732236261315   -9.77511559472345
C         -14.08533695426037  -19.43164298691940   -9.54414794495453
C         -14.52096052427490  -17.29528979703430  -11.94095140168923
C         -15.53033641751975  -18.11867007604617  -12.23154246101564
H          -4.44235860222882    0.58999376504054    5.82815724065776
H          -6.40425908064033    1.98277298997838    4.36531607021137
H          -8.17676766029325    3.64744460104031    0.46989913165000
H          -7.52099419519811    2.01456383592987    0.22962492327899
H          -6.21925738018756    4.23131282656891    1.90414950128818
H          -5.67409342297128    3.71762976644764    0.30177419716790
H          -5.55423278742418    2.61005662758236    1.67378435564183
H          -8.22752432871781   -2.41881572274632    0.21141236677329
H          -9.80109669598558   -1.93103156098027   -0.43198666147212
H          -9.35134457338001   -2.83472490504970    2.46465682851374
H         -10.05418763012067   -3.83615233725722    1.18852815980830
H         -10.89314794727305   -2.38053221725867    1.74065075687036
H          -7.08836811543367   -2.33846806360112    1.98713995880518
H          -5.75328980071458   -3.95681281920367    2.73362607057226
H          -3.58064931618689   -4.35333895070846    4.84854984455187
H          -2.32888611686576   -5.96013016769035    5.65461178207510
H           0.09428257394516   -6.39585032926026    8.35130364275842
H          -1.40747554279603   -5.91742764049148    7.54953721470276
H          -0.05104892252071   -5.44376839590587    5.43898942209348
H           1.40936519792945   -5.89243980671325    6.31957711509388
H           0.49461167408530   -4.45845818937402    6.80088402038266
H           0.66175712348170   -9.17712214341702    4.47761816506008
H           0.76841360426376  -10.79319142738006    3.74121862012319
H           1.61999300331118  -10.07364658567341    6.59274743805710
H           2.72731598779579  -10.38716447341045    5.24587794468715
H           1.71077100608010  -11.68750315832576    5.88233984136527
H          -2.97915183307731  -10.31967665919091    3.36613226289518
H          -4.53775187550413  -10.16793192396808    1.76097276514741
H          -6.23774287382397   -8.02683161772243    0.38287255212554
H          -5.51023899074356  -11.88153743356193    1.62007819124608
H          -7.37657303979566  -15.64973280733262    1.51442142027058
H          -7.29126855710560  -14.53863350259238    2.90679762513186
H          -6.00311918472934  -17.31391150503390    2.75477219905320
H          -7.46260235234712  -16.92100676161925    3.67610537083489
H          -5.90429049246482  -16.22111701774669    4.13777751810174
H          -6.08961472367086  -15.75517217103137   -3.30367517448637
H          -7.72095194499649  -15.97447709567865   -2.60208380403690
H          -5.54655415640755  -18.12534883370814   -2.74831290935603
H          -6.97554907959268  -18.04614656460907   -3.78764993327369
H          -7.15456984662849  -18.34077124407193   -2.05357327448938
H          -7.04374920440834  -13.78765649657783   -2.68338549682921
H          -8.21939723993731  -10.18570679345445   -4.13957221360126
H          -8.61089594004735  -13.17225668419767   -3.64310402745750
H          -7.89494095176980   -9.87411998999609   -6.06359736005663
H          -9.39929123332962   -6.75989306197706   -6.87932061474866
H         -10.18558025937835   -7.40753129353727   -8.34100821563916
H          -8.13959438908644   -5.13067286749748   -8.30488246996195
H          -9.88341593755339   -4.92395257335047   -8.52246498775238
H          -8.92966053119792   -5.78181868050995   -9.74330862207780
H         -10.45138861679564  -11.02769978121350  -11.66428990540664
H         -10.57486400133103   -9.50816102584623  -12.56062374749119
H         -12.33729376882589  -10.20820821771716  -10.14997250592435
H         -12.84836425950110  -10.30638616347218  -11.83890808070916
H         -12.43534090851880   -8.74254872089765  -11.12604878855313
H         -10.65633441843338  -11.79787280718080   -9.70326064648173
H         -11.49294092922161  -13.75972160861691   -9.25126134856318
H         -11.40243632259527  -15.82991189859457   -6.99948332020458
H         -12.10925454427024  -17.90158799966479   -6.57514609751053
H         -14.52419135424017  -21.25233654088404   -4.32447682061617
H         -15.19366765975628  -21.06253516238170   -5.96128496047463
H         -14.48494804158913  -18.76575420950700   -4.05132027958944
H         -16.12680858957090  -19.32263581935085   -4.40300056138091
H         -15.15652106314479  -18.57135586478349   -5.67490408503129
H         -12.97914072096074  -23.76063989206234   -8.32757496605083
H         -12.15413931345231  -22.35768525650719   -7.61041817757068
H         -12.64475472250154  -22.79332969564436  -10.60932682087746
H         -11.08905736484415  -22.99999615477227   -9.79307070925662
H         -11.82308020031618  -21.39623534447791   -9.90369681238713
H         -14.58543342120258  -19.90301940095815  -10.37334134735890
H         -14.20848792109791  -16.57174410593337  -12.68526073117619
H         -15.94334229166910  -18.81093740322357  -11.52090480043709
H         -15.99709996649766  -18.09226822488099  -13.20052500421704
