62
 SCF done       -136.009271024451          0.000716268884
C           9.73684740984108   -7.91317452301483   -4.37870957116989
N           9.52412894417760   -6.57485585721587   -4.86525021848060
C          10.33089324452829   -6.00671980319826   -5.80025367844531
S          11.64822643698592   -6.69615123278517   -6.47117029014849
S           9.77495212312225   -4.38354259544631   -6.16692696334548
C           8.41597191716628   -4.53774249823253   -5.05131139717601
C           7.57203447123355   -3.49389411904027   -4.87398130004712
C           6.35617036343266   -3.46359309821378   -4.10828464040987
C           5.85796462676187   -2.32315737801580   -3.50912673531207
S           4.40109109449062   -2.64205771782046   -2.68905885463034
C           4.51528777862391   -4.31421075601724   -3.23729094009974
C           3.47047347420872   -5.24649600721132   -2.96317228236235
C           3.53868309711458   -6.53617904767443   -3.34287021199997
C           2.46333615699569   -7.48739099315064   -3.23611968553501
C           1.45768296014159   -7.47483393304195   -2.28349127173369
C           1.29722318139904   -6.57941771680584   -1.22232179900556
N           1.14468847738744   -5.85493580780341   -0.34535431788254
S           0.34026856669770   -8.78526233112941   -2.46112331449417
C           1.21197939481724   -9.35042775863383   -3.83458208592348
C           0.68801011990557  -10.53309803052920   -4.57388350955254
F          -0.60131255711329  -10.76360221235256   -4.29115860434338
F           0.76369371952760  -10.37986948872218   -5.90706041529284
F           1.34296608050752  -11.67279722161011   -4.28681503149577
C           2.31585197306756   -8.58756049564258   -4.14076819025272
C           3.20814457146768   -8.84874706871169   -5.25562315772602
S           3.88364209286392  -10.43897215166768   -5.48312876864845
C           4.76856647309599   -9.92990182863349   -6.88336597359121
C           5.64245037091208  -10.83903693437603   -7.57460808361727
C           5.83487174175695  -12.16091104601509   -7.25783518196752
S           6.97673734570425  -12.87808425796208   -8.31061612547075
C           7.12085180872371  -11.34522091417429   -9.11056431175243
N           6.38873329506652  -10.41006588486453   -8.63512164292582
C           4.51836892795560   -8.61077509076006   -7.16173077613205
C           3.64508275440643   -7.99633419781911   -6.23433955660488
C           3.37979954138883   -6.54204887788441   -6.44745776167633
C           4.75163040919359   -5.85958643663296   -6.55553041881846
N           4.59943435706073   -4.39680595378161   -6.78189359318409
O           3.61480759496764   -3.87385841548010   -6.32622532792388
O           5.49342495382962   -3.82599404900312   -7.35645826672802
C           5.68493432657567   -6.49339789452739   -7.59075866169767
N           6.92323375436337   -6.97319595884368   -6.93236867279242
O           7.97051083455386   -6.76802359237653   -7.49274614073186
O           6.79441444013929   -7.57632568463724   -5.89219096267612
C           5.08750400575792   -7.75610719108704   -8.24310566896999
N           5.56853730583915   -4.55336903740509   -3.94865003270255
C           8.48510528451400   -5.82532210321069   -4.39742964829530
S           7.54719886604936   -6.35622777629851   -3.15316745539696
H          10.50988215112950   -8.38396632191668   -4.98159873529820
H           8.79920521229906   -8.46563517338504   -4.45556312256387
H          10.04363880435950   -7.88396402348287   -3.33196918982769
H           7.82960321567314   -2.56454375445716   -5.36308265895342
H           6.29614290317121   -1.34574675167724   -3.50659637055309
H           2.59071211814321   -4.84583072633465   -2.48183852593841
H           4.44282172834252   -6.90409795120616   -3.80762851958949
H           5.36855837631770  -12.72381669828010   -6.47495474420273
H           7.78372230857657  -11.21465377518935   -9.94227365838764
H           2.80380591511413   -6.09876782341215   -5.63863118851132
H           2.82419431868366   -6.40288075544022   -7.37963358089581
H           5.22910912952727   -5.90978603387535   -5.55913743150870
H           5.99688511310135   -5.76508076231548   -8.34744620115240
H           5.84870833139391   -8.29897230168266   -8.80529413816333
H           4.29803226271017   -7.45414417791250   -8.93521043507777
