106
 SCF done       -188.581226104106          0.000854591295
C           2.68916412482362   -1.47701994589044   -4.21293283163942
S           3.52336220478236   -0.12986856353430   -3.57872922263849
C           2.73854662767945    0.93937112229142   -4.71975401918587
C           1.86021600661902    0.23705894149619   -5.53075250715410
C           1.84236981253116   -1.14365190082216   -5.23300059419189
C           0.96263182586481   -2.12853220356842   -5.94066296816442
C           0.47653786416377   -1.57316742020453   -7.28916447321292
C           1.58459779448829   -1.64180520760216   -8.33418300450664
O           2.12718842026356   -0.69843131127004   -8.82879306831847
O           1.92588217447036   -2.89021921713492   -8.69433287800832
C          -0.06697931538416   -0.13980332837641   -7.10735877553882
O          -1.19165180215600   -0.14253280784955   -6.26003614636244
C           1.01882106443705    0.82460987016330   -6.61711844402086
C           3.07438257281365    2.32078310338300   -4.67788472401994
C           3.78292303763942    2.93512868065261   -3.66687730958974
C           3.90809267402655    4.31828936145642   -3.94959215711656
C           3.25841592903196    4.52729691114953   -5.25927205806419
C           2.76986623622525    3.33269862298475   -5.68242936962314
C           3.23226793806127    5.70830087119140   -6.01040261881178
N           3.21801108627620    6.63906248661929   -6.68338569187843
C           4.50268341869971    5.29255859176955   -3.17707049570297
C           4.49799694366016    6.69291252269461   -3.40452463265806
C           5.26504864191299    7.31694489242861   -2.43746648184038
C           5.76980678675190    6.28853577732432   -1.54396246847877
C           5.29912571623379    5.08036061231405   -1.95925516432015
C           5.56381048084504    3.86144140527684   -1.32754100515334
N           5.79975665033370    2.87959806062157   -0.77861773804101
C           5.45060595926790    8.72464403392001   -2.39126225844298
N           6.48171029750936    9.41574848617928   -1.80011182239301
C           7.61591548455960    8.88123357258911   -1.08539572233133
C           7.36275093470874    8.84230945826679    0.42015278929459
C           6.37486422536707   10.80123564988958   -2.01204346157154
O           7.19686725624587   11.60264027566016   -1.60671172087178
C           5.15863322560163   10.95947451982975   -2.77355781422456
C           4.62074890088030    9.66894847042384   -2.99679877301352
C           3.36815079498664    9.82181449632005   -3.70582444690543
O           2.53011263231484    9.02978630512602   -4.07621747953132
N           3.24780230911137   11.21693021195921   -3.88991376013565
C           2.14464076464643   11.76789767401673   -4.63890039631524
C           2.53873040346440   12.07651846847003   -6.08123920647939
C           4.30519895522114   11.90273794933958   -3.35027216726922
C           4.43841977878859   13.31589939040068   -3.40543167836172
C           5.51062658623688   13.95823109320413   -2.88611306795311
C           5.74516079939230   15.37711348086136   -2.91051150948976
C           4.86736417840324   16.29884355561389   -3.48017022890526
C           5.15514574978843   17.65358298101537   -3.48985501330159
N           4.21117654140000   18.50126574299000   -4.16814260161212
O           3.07869995673194   18.08026472264890   -4.29598605631065
O           4.59376919746743   19.57023316857967   -4.59783914092288
C           6.33554244017697   18.16700735948781   -2.91475780854949
C           7.20702057115992   17.22583398783229   -2.34311849702708
C           6.92887450101618   15.88175319069384   -2.34273983068139
C           6.62604789308261   19.57667891000580   -2.84544533450240
C           7.86970512229662   20.09489193898301   -2.85588397430660
C           8.15562932303545   21.48863873730796   -2.77105992021321
S           6.90958396003544   22.65158221818507   -2.40809456269491
C           8.03059479941397   23.93916435506731   -2.51972926157518
C           9.29516510911363   23.52046466098717   -2.81837986513294
C           9.37284808728601   22.11648597427623   -2.95887123665188
C          10.63739891318272   21.41226153836854   -3.34732424593481
C          11.87890958189129   22.31242800719575   -3.19625697333468
C          12.36330941836963   22.31666747773924   -1.75101507197421
O          12.32049361342804   23.24897200729729   -1.00459952990631
O          12.88060268702195   21.14348248505559   -1.34328175614542
C          11.60906248783670   23.73635869738430   -3.73073880761572
O          11.35326198590650   23.69930175844589   -5.11492492335530
C          10.48055408860498   24.41984851892247   -2.95554991960735
H           2.86082864344708   -2.45252511177883   -3.80179749509832
H           0.08917962072406   -2.34953107890624   -5.31713367932751
H           1.50458659486246   -3.06970598128021   -6.07121167129316
H          -0.35417027169761   -2.19582556680594   -7.64618071575614
H           1.39482588531728   -3.57080593424019   -8.25968740187206
H          -0.44233069214931    0.21395737182648   -8.07364332699682
H          -0.89074885678076   -0.22700003767770   -5.34785324841984
H           0.52821885857076    1.73829334016516   -6.27310073265979
H           1.65984967181047    1.07214934375152   -7.46643681355822
H           4.14794269476277    2.45558019339673   -2.77930292874962
H           2.28531678554216    3.15659415826410   -6.62216182819813
H           3.97338229115929    7.18332112062855   -4.19951171652029
H           6.36917265208891    6.44486410735061   -0.66784567001751
H           8.45606086821491    9.55325992306965   -1.28637315004356
H           7.85420357531147    7.89161962416155   -1.48043669223317
H           7.22654249493616    9.85429637738232    0.79322619677288
H           8.21317334840056    8.39520095174054    0.92782390142956
H           6.46872912856187    8.26845352812741    0.65516313940000
H           1.76692656394571   12.66155245459406   -4.13445182300671
H           1.36401462415542   11.00200694970488   -4.63090422632070
H           3.35343330414072   12.79671697808957   -6.11923810062635
H           1.68542291444192   12.48404302081360   -6.61598862844254
H           2.85803930257470   11.16452382002470   -6.57937962409481
H           3.64475259573520   13.86495915283021   -3.88964773100752
H           6.28221102073360   13.36882505046716   -2.40839768547388
H           3.94582180560799   15.98159269277001   -3.94333495507812
H           8.10562903504500   17.58259227632685   -1.86398728303888
H           7.62198547479194   15.18792544716945   -1.89068849171396
H           5.78858202303158   20.25989775408582   -2.81740466885124
H           8.72446048390937   19.44392826180210   -2.98507804973329
H           7.69948999035742   24.94515336288513   -2.35451871132680
H          10.55938667753790   21.09376233285057   -4.39323052907609
H          10.75375825838744   20.50546279495994   -2.74549392595035
H          12.68551662296255   21.88786413869254   -3.80892989705435
H          12.91311786904950   20.47868149422363   -2.04409770633916
H          12.52685970401610   24.32476542301654   -3.62575385416625
H          10.45133221912749   23.38545535605476   -5.25089169571947
H          10.20286779410624   25.34296663853661   -3.46857019675615
H          10.84960399412723   24.68265281328107   -1.96221047862725
