114
 SCF done       -199.467770212585          0.000533481230
C           6.38099636709420   -0.24715197293418    1.26934086988672
C           5.89423045237553   -0.11425250271208   -0.16637931967160
O           6.55385823416980    0.10349675791717   -1.13716298202461
O           4.56326581855104   -0.28909828586095   -0.20601715638716
C           4.03947125603501   -0.63401304271415    1.07101068164084
C           5.09042801511406   -0.12614502477855    2.07482103663092
C           5.07152425897305   -0.83471156414907    3.42263734674189
C           5.09264948493633   -2.35383368525535    3.30054177606380
C           4.00324376550430   -2.93036733293448    2.39782232933795
C           3.77378126354763   -2.15874898448480    1.07984708849062
O           2.41269922247031   -2.39118385739866    0.73849905267139
C           1.69524985013822   -2.87521179985407    1.75337108897182
O           0.52706097597327   -3.10799304259844    1.68411914524951
C           2.58553863294611   -3.08134887348207    2.98924415546120
C           2.16724325950070   -2.12796811897048    4.05275478330509
C           1.79802697508403   -0.82477713473063    3.90840233475650
C           1.42680759923220   -0.29990450666540    5.19065941730317
C           1.59370135258001   -1.40439730415012    6.14806953418314
C           2.05446492407000   -2.48244286302701    5.45555412193005
C           1.44895310029980   -1.32407225519990    7.53772289427523
N           1.38336491866790   -1.27948187180842    8.68329915127593
C           1.03017709541178    0.98317874736385    5.47561699817969
C           0.42224970707069    1.46734163455730    6.66373895016031
C           0.19074642800888    2.82670346177651    6.53897869045428
C           0.69282068203241    3.24036817603175    5.23391638340491
C           1.17328125097870    2.14814817748781    4.58486226853655
C           1.83825037937181    2.14778686646543    3.35475300729228
N           2.43231331442420    2.15235217173516    2.37105050287870
C          -0.42872689606954    3.60034596616024    7.55422016448982
N          -0.46594974629263    4.96874610716543    7.67399321953758
C           0.17277428058584    5.96544813394564    6.84633238532357
C           1.69236157131115    5.93459890737924    6.97925876302260
C          -1.12236793016622    5.37282967940378    8.85328626331838
O          -1.25486342036464    6.53633698778864    9.17709588762360
C          -1.54485332928967    4.13979460942755    9.47566887632652
C          -1.11099252956875    3.07579824075109    8.66191318977235
C          -1.58557965361015    1.83768993295996    9.25777851869476
O          -1.50854843573296    0.68167708365660    8.90983944200794
N          -2.25469657790800    2.25184756516740   10.42581482639094
C          -2.81219141888145    1.28244168301825   11.34032925822221
C          -1.86328276163427    0.99005794577689   12.49930961789131
C          -2.23232198263736    3.61249043246778   10.58140058548129
C          -2.79344538007249    4.28897906653012   11.68382492823713
C          -2.75955262856601    5.64697107581685   11.81265609224727
C          -3.26737114552895    6.34862823245134   12.93197093762553
C          -3.82580204409379    5.85250507681939   14.09196980185846
C          -4.16017250530973    6.93610232020426   14.95652861155984
C          -3.77161646053944    8.16615693241512   14.23511029014863
C          -3.24064617570355    7.80240824356177   13.04075381291778
C          -3.89920001232855    9.47902538084940   14.70183510226833
N          -3.98962269420795   10.56222682024191   15.07419927247634
C          -4.70821482232063    6.85928317349776   16.21062922084927
C          -5.05221076887217    7.95171004279116   17.08160450479810
C          -5.54584336979013    7.45096619642156   18.24474845306659
C          -5.54244915638700    6.00061834872662   18.16419203721317
C          -5.04910916729300    5.63187296994438   16.95082015010081
C          -4.88032324699807    4.31801779012469   16.50488241567683
N          -4.73467058565780    3.23373402912325   16.15232729937532
C          -6.02997136438930    8.18613457107257   19.44039036382212
C          -7.50390537276623    7.86185222235152   19.76331989041334
O          -8.04098840254351    6.80183030346823   19.66763154319744
O          -8.11585234368331    8.97215748716712   20.18537787247806
C          -7.20605442903743   10.06265944007970   20.30181768595280
C          -6.06472171732618    9.71172041573642   19.33364079702388
C          -4.75842247512085   10.44468408407979   19.60878474769978
C          -4.32564104064961   10.33353800206230   21.06433295260374
C          -5.40033034622120   10.81196034177472   22.03311490295505
C          -6.79841280853762   10.21191960944659   21.78797181245127
O          -7.69189457434906   11.12227333554207   22.41368498433606
C          -7.14802861202956   12.35063873722687   22.51616347900350
O          -7.74440285150470   13.29284267559543   22.93822433270944
C          -5.70742855753201   12.30722312297449   22.02621980670535
H           7.11873697228562    0.51896901684397    1.49638794924812
H           6.85429667443372   -1.22420170573332    1.38176200987657
H           3.08646660466736   -0.10813009903784    1.17192271823064
H           4.88350101101158    0.93633383566194    2.24158633549714
H           4.18384969058783   -0.51726108083616    3.96826572322894
H           5.94281578544754   -0.51498858416578    3.99744139746046
H           4.99703190850960   -2.79635343299432    4.29372920948636
H           6.06009213819399   -2.66645278999581    2.90153171820596
H           4.31886411192737   -3.94189236393882    2.11699921967759
H           4.37531481714860   -2.58777339979307    0.26953240283497
H           2.43406764869141   -4.09608765574733    3.36728405108589
H           1.72508545268157   -0.27700673072798    2.99054341711995
H           2.30288490480472   -3.44405680881894    5.86578735990900
H           0.14916146820866    0.85303850086684    7.49881242404904
H           0.67595326244965    4.23253202762553    4.82744489921760
H          -0.20506440431717    6.92705309582405    7.20712988038778
H          -0.14325356361115    5.84545193984416    5.80752374222866
H           1.97783796376582    6.12385495900204    8.01128681608620
H           2.13041739996388    6.70575700407283    6.35175534256312
H           2.09755939283473    4.96996793827811    6.68111523732991
H          -2.96739955779057    0.37067473141016   10.75722728955309
H          -3.77891469654009    1.63847636977598   11.70460020006086
H          -0.92848443678736    0.58514614823233   12.11959265185510
H          -2.31407532039269    0.25935139304285   13.16431599385266
H          -1.64844930711216    1.89242048533427   13.06765663077539
H          -3.25643923079362    3.69251165600879   12.45603670689513
H          -2.31069456089737    6.24166471124503   11.02767336925145
H          -3.98926564024132    4.82214873433529   14.33552504389928
H          -2.85482066779766    8.45718210748997   12.28122303801097
H          -4.91995183733044    8.98213363567991   16.82092811227491
H          -5.89815355092300    5.34857276012996   18.93915155305841
H          -5.45513372384078    7.85815965028693   20.31663168630539
H          -7.74999103915910   10.96382233367405   20.00358252052209
H          -6.40321155281169    9.96599331826195   18.32306673962650
H          -4.88532713069073   11.49399173570256   19.33792731085168
H          -3.97936990579204   10.03607239064756   18.96395720553739
H          -3.42258704187821   10.92499619128174   21.22135583022436
H          -4.07730553514732    9.29635260251916   21.29856338669732
H          -5.09939205874318   10.53329870295255   23.04945737643377
H          -6.93197900357991    9.24331159845450   22.28020425927775
H          -5.06357043307841   12.89610871134392   22.67537463468182
H          -5.67030770413978   12.73583107190455   21.02352335192036
