90
 SCF done       -183.884068250142          0.000907016768
C           0.62619670641483    0.54026185564524   -4.28560161649147
S           0.23360439856962   -1.01741019612895   -4.83703529547812
C           0.25736263645014   -1.67877744600388   -3.21686109707998
C           0.57188300154819   -0.69203021477360   -2.31206940374253
C           0.77993618326886    0.57038351498368   -2.92440963766421
N           1.15651894960002    1.74772558742480   -2.20385321531938
O           1.20991384177954    2.78259638447930   -2.82771043041402
O           1.40712010422533    1.61059873783468   -1.02754361128413
N           0.71006404874012   -0.91184133802809   -0.87723280900392
O          -0.24502814370369   -0.63711966385417   -0.19817996003671
O           1.74672848479852   -1.40156853736377   -0.51200367034958
C          -0.03614858311692   -3.07001853253372   -3.04056904544061
C          -0.35112480976230   -3.66884939092751   -1.87752402440233
C          -0.63813849724909   -5.07526340652205   -1.70757181819194
C          -1.14697850725445   -5.51067273248100   -0.48674779458358
C          -1.41255421592678   -6.85110624496900   -0.24170531110535
N          -2.03397642705069   -7.13414839928571    1.02860132378000
O          -2.77682217343469   -6.28176361683321    1.46594763748187
O          -1.79388578606794   -8.18358343783624    1.58757784467194
C          -1.19239635617332   -7.82773632868993   -1.22881212769729
C          -0.74366141700209   -7.36079083099711   -2.47601113700124
C          -0.45057589598302   -6.04040578784881   -2.70899740514729
C          -1.45662655367566   -9.24998021736570   -1.13368926210797
C          -1.05649500249150  -10.09283756834326   -0.16176886570514
C          -1.36739865462251  -11.48496636803748   -0.20194261437534
N          -1.04797885237007  -12.35936470591716    0.80870903003789
C          -0.43478955933945  -12.03107220428394    2.07378212752955
C          -1.40950555793800  -11.33277641280837    3.01844550529420
C          -1.47814702450373  -13.66673850911553    0.52732083634842
O          -1.29562881680367  -14.60997330912685    1.27571659475564
C          -2.10089900277376  -13.56890315677527   -0.77179151269710
C          -2.01176194199315  -12.21356279576415   -1.19368132672598
C          -2.61916732311960  -12.11762686447265   -2.50090488516010
O          -2.77289434373286  -11.17737057444397   -3.26019868883627
N          -3.05373391815269  -13.42107798457488   -2.78106226922258
C          -3.68106763773918  -13.74964459201168   -4.03844388479193
C          -2.70713592451004  -14.42948079870400   -4.99747670238489
C          -2.75330658451119  -14.29616608429755   -1.76129471299887
C          -3.11686127500332  -15.67199185624157   -1.78742347817421
C          -2.78319999976641  -16.50778952923222   -0.78085527849227
C          -3.08298246589720  -17.90620532770678   -0.63269707518591
C          -2.50455847108309  -18.57479875253009    0.42097902442648
S          -2.94980185705054  -20.21921229002756    0.52836828302313
C          -3.96229392250026  -20.05828041692801   -0.82871240509191
C          -3.95132659019828  -18.79469411967556   -1.37032381123456
C          -4.77650979728217  -18.51351184071690   -2.54354302033556
O          -4.67906038282429  -17.61420137589332   -3.33869830628854
O          -5.75027016986110  -19.47375915889105   -2.67057932946027
C          -6.61710084045575  -19.37432352379454   -3.69902847816474
C          -7.60464271909489  -20.26837242586381   -3.85260038260750
C          -8.55948670946479  -20.20107700787764   -4.90923120973869
S          -8.52145448681961  -18.95383621806794   -6.11159815734670
C          -9.89372113594754  -19.60763898045031   -6.97117473246970
C         -10.35003582735529  -20.73426125035198   -6.33542704360461
C          -9.60384090636067  -21.07545159918506   -5.17376907495895
N          -9.87935262406370  -22.27408811918160   -4.44968737928793
O          -9.43307362394241  -22.39184528717728   -3.32923994804391
O         -10.53327548691117  -23.11288602628185   -5.03299664878077
N         -11.58482522307304  -21.42517698253745   -6.67658219660127
O         -11.63968778049971  -21.99142597756484   -7.73635144245199
O         -12.47298163572841  -21.31434681718812   -5.86983638466200
C         -10.36009749219249  -18.88560418388398   -8.13142753036001
C         -11.11246906550146  -19.36763942608827   -9.11722561313991
H           0.74113145387047    1.36895364642310   -4.95632612071824
H          -0.02034789655683   -3.64080365403572   -3.95815296369220
H          -0.44061152757215   -3.08728922633637   -0.97195220352861
H          -1.35382101263048   -4.79820374148262    0.29903224364417
H          -0.60856637387592   -8.08648562363451   -3.26369134421226
H          -0.07143965417840   -5.75119152152772   -3.67605521858029
H          -1.96367594687043   -9.66364580908728   -1.99875141878072
H          -0.47639845700745   -9.74096285325101    0.67559841591710
H           0.45029957920661  -11.41177515150383    1.90327301993613
H          -0.11877304775857  -12.98507125183670    2.50594718148374
H          -1.73141753830772  -10.37597870675543    2.61552789822227
H          -0.92697868828606  -11.16149995119286    3.97661847550303
H          -2.28413581027594  -11.95887818414967    3.17793235287063
H          -4.01703577002677  -12.80005564792886   -4.46463734652704
H          -4.55082370720711  -14.38721609132866   -3.86018162300816
H          -1.85090541661878  -13.78412418811496   -5.17971663324825
H          -3.20274770376042  -14.62717742230947   -5.94392009665986
H          -2.35365406239547  -15.37197984331273   -4.58591429280125
H          -3.67247051452911  -16.02376651484299   -2.63938813747086
H          -2.20057206703255  -16.10745124894738    0.03968823989828
H          -1.82703766995589  -18.15542433209696    1.13861181281685
H          -4.51574216908488  -20.90424972119861   -1.18524299201683
H          -6.46425016012605  -18.53247676328290   -4.36813343008074
H          -7.71416351198819  -21.07754399721104   -3.14490923992130
H         -10.00447418468132  -17.86401053084419   -8.17570056710496
H         -11.45109396393168  -20.38820144084856   -9.15620471365880
H         -11.39937453417515  -18.73492956542700   -9.93880644374206
