83
 SCF done       -178.437864615168          0.000573310362
C           5.86342362092023    2.06602474530130    5.77561203450337
C           5.25543054381083    1.58872324459524    4.69222965822135
C           5.74620466812700    1.77187513050341    3.35402677287656
S           7.23039812334204    2.62890524896402    3.03152254648764
C           7.11938340439214    2.33773395853906    1.31839943990095
C           8.07990451448616    2.87373888285021    0.41291741005243
S           8.51461117832209    4.56155708551044    0.56032775559663
C           9.43577416457703    4.51007609470401   -0.90988473568485
C          10.04535725171982    5.71829375179978   -1.38448016413058
S           9.17942272181654    7.21255556414381   -1.17887872289427
C          10.47076187189528    8.11939634203355   -1.91070240788712
C          10.33854186397379    9.53978506023748   -2.01731170226005
S           9.46364846809560   10.39247787483593   -0.78454886831269
C           9.74931756104996   11.91662624973005   -1.55582825865579
C           9.31498422860696   13.15354527073267   -1.01543919134220
C           8.50711116990492   13.27286312385465    0.06188723606713
C           8.00409012126685   14.49503102508011    0.59417898538188
S           7.37355260998448   14.51167043339448    2.22492124461540
C           7.03336479829354   16.17886806346924    2.15297169815666
C           7.37701498243498   16.71484416179103    0.94200721426385
N           7.09214697596641   18.07553504677674    0.59366130767682
O           6.90155054499436   18.84658740501160    1.50596215564539
O           7.03249516790635   18.33785517411071   -0.58579952031415
C           7.92511231767895   15.75965771548444    0.04550489879744
N           8.37038737966864   16.09656681015676   -1.28891697614560
O           9.27741587081027   16.88591592491611   -1.37148125494888
O           7.83181423792567   15.52581743455563   -2.20823357787063
C          10.44407809527142   11.75257508396864   -2.74932695904689
O          10.77955983203984   12.80290611955427   -3.55618983290210
C           9.71439566866865   13.41003394844718   -4.27941339632141
C          10.78054827415811   10.39987686560170   -3.01609397889900
O          11.40336012506233    9.89286897482949   -4.10285952933226
C          12.01639789500338   10.77476137666408   -5.02706084735090
C          11.51791394953731    7.29296167276898   -2.25948014694340
C          11.27550005588654    5.93336147145720   -1.96759504169491
C          12.31784279107696    4.87948276617373   -2.16347998398509
C          13.43732064863340    5.36512739755043   -3.09627950595302
C          14.48329126105166    4.36517349736968   -3.10013637619614
N          15.27497953784378    3.54258080591713   -3.08154856967107
C          13.93298355945558    6.74249547860569   -2.62716150749110
C          15.15315932930771    7.19998569883371   -3.41798778065237
F          16.25446266787779    6.49177285870064   -3.15100438854503
F          14.95333898811319    7.12873489736385   -4.74386484916348
F          15.46077555431919    8.48164947935258   -3.15399966026738
C          12.81657688790981    7.77233762170674   -2.82369631684315
C           9.43604617148233    3.24355237286543   -1.45746824290977
O          10.03838546954413    3.00252518685530   -2.64468611045824
C           9.55588412111473    1.92666707226583   -3.43801309264094
C           8.71666853170198    2.28765366119592   -0.67031149837677
O           8.85044210474687    0.98616234666429   -0.96230084679842
C           8.41349190979768   -0.00778695250085   -0.06533292434480
C           5.95289760526672    1.65049239283766    1.01992168049133
N           5.39221261542189    1.61994791520956   -0.29103258634714
O           6.14859280158757    1.67532551683371   -1.24157977134120
O           4.18220571408740    1.61997121054540   -0.35897065986379
C           5.20031480192280    1.30487677639991    2.18022194431708
N           4.09303698588424    0.38945869061630    2.11791766123646
O           3.18265738918315    0.53761593006906    2.89715445921372
O           4.20518958802214   -0.50943394359027    1.31560384789009
H           5.45468152871507    1.91358012049240    6.75794466733713
H           6.78217828959752    2.62694280334136    5.71017333721623
H           4.32396899697508    1.04468772818586    4.77163007273728
H           9.70779276623297   14.02234482956404   -1.52219493718563
H           8.20712458454279   12.37642952452788    0.58834291763370
H           6.57868239722017   16.69937904716882    2.97258437375233
H           8.91712754553466   13.77266720247058   -3.62712827370953
H           9.28823197688840   12.70782025796566   -5.00393657394686
H          10.16362503308669   14.24973133967777   -4.80491586233025
H          11.27369290894195   11.30431453069629   -5.62746822307300
H          12.61499703693022   10.13786921459824   -5.67722393678515
H          12.66006263602022   11.49800675883297   -4.52450852003764
H          11.86600544760955    3.97681460335969   -2.57437703996383
H          12.74643834367948    4.61621985450450   -1.18999387325808
H          13.05274767306856    5.45763244409485   -4.11963008547569
H          14.23408965712057    6.69088624055845   -1.57515964493950
H          12.69194327080990    7.96647201998432   -3.89319869477971
H          13.09364485472796    8.71845809170687   -2.35401960263507
H           9.98052003350936    0.97626987679087   -3.11095930763633
H           9.88560482520358    2.14738628530711   -4.45238060114245
H           8.46725667846639    1.86907241022497   -3.40486180665737
H           7.33962534051445   -0.18698613506302   -0.14842549679102
H           8.66583121426271    0.24851371445955    0.96770845113859
H           8.94369566730820   -0.91335377768902   -0.35818150604363
