83
 SCF done       -178.453274711453          0.000607278079
C          -3.65851688292669   -0.39642567438394   -0.59162214387308
S          -3.19120257457243   -2.04239080312292   -0.61196918513017
C          -2.29119648171086   -1.87406120079317    0.87614846240802
C          -2.38831227451056   -0.56804143845698    1.34685585578974
C          -3.16487336907426    0.26526972042481    0.49116390733874
N          -3.31606415317311    1.69447948254560    0.62668413963610
O          -4.38118834534448    2.15929840676196    0.29749350660969
O          -2.34451636229160    2.31043529286137    0.98818782846221
N          -1.96436822834847   -0.14661815655646    2.64099684659954
O          -1.03834476968254   -0.72993388989323    3.16697926135708
O          -2.61019847616881    0.74119974280973    3.15574157431715
C          -1.61267604155518   -2.96357094304368    1.47490094885941
C          -1.72020661188314   -4.24346981752375    1.03483755490138
C          -1.05816004179024   -5.36872326216901    1.58220745106125
S          -1.15312696371303   -6.87824230650417    0.72145452072016
C          -0.08773390445777   -7.63613753286109    1.84541130811773
C           0.30965292581454   -6.76530097032001    2.85974418770190
C          -0.25493332867153   -5.47934745122943    2.72111179621944
O          -0.01797427175591   -4.44766821466634    3.58735003417058
C          -1.08187610953104   -4.12980370790614    4.47341818086199
O           1.15545506663265   -7.25129942122344    3.78927685115907
C           1.74063666557211   -6.37034788641377    4.72974513297070
C           0.34603507592641   -8.97094716461466    1.69392232399883
S           1.50212282863500   -9.68827135643631    2.75253010633220
C           1.51983686771079  -11.14201150142579    1.79575088440678
C           0.63068916837094  -11.07542505010935    0.72754123667109
C          -0.04737500592970   -9.83732552142652    0.68244557301119
O          -1.00285773818381   -9.46230080626091   -0.22845254725044
C          -2.31420580952307   -9.89928845981956    0.09845933566997
O           0.46245536136601  -12.14686060234926   -0.07204324864778
C           0.08795478190041  -11.93152496992701   -1.42657033712145
C           2.37753507898305  -12.23026219470002    2.12888778819115
S           2.73068269794818  -12.60624498713293    3.79295489225701
C           3.69350937590789  -13.99438689544609    3.36148128982236
C           3.73254762680975  -14.13018374678995    1.97860065667184
C           2.99377129678274  -13.13474775261807    1.29202155922405
N           2.88826601882303  -13.07164087760984   -0.14943500089391
O           2.51504109504179  -14.06837840297143   -0.71366720384432
O           3.16555170856251  -12.01606602882915   -0.66531342200604
N           4.56014808954458  -15.06944121953039    1.29043732901730
O           4.81488005538342  -16.12056114356686    1.83894582378509
O           4.98302612519336  -14.72349663535661    0.20846813431997
C           4.34591296853631  -14.79158657415640    4.33495342854235
C           4.23252354269295  -14.59431813282609    5.66878368640460
C           4.86824519208665  -15.39562634288632    6.65296637806036
S           5.93858506329076  -16.70326346556290    6.22121856436625
C           6.21855168235482  -17.06494829808835    7.86770851930961
C           5.53198473577795  -16.24287183056660    8.71674457299429
C           4.75606308059643  -15.28720698974775    8.02859704862873
C           3.93192559927274  -14.25861391800923    8.73763090260607
C           3.72537196783212  -14.62967679364000   10.21169263211430
C           3.10397832087807  -13.43591532263549   10.92980867983253
F           2.05142932291363  -12.94704790203411   10.25057503331078
F           2.65403056435493  -13.72946523584871   12.15205751104380
F           3.96995083354472  -12.41876576372061   11.06145034069498
C           5.06988390520955  -15.02933665762652   10.84589903433399
C           4.97190554670235  -15.22786106961168   12.27679234697422
N           4.92475231614285  -15.42991969639193   13.39926711334997
C           5.56108468286853  -16.33998545325507   10.20940214079908
H          -4.24711249288967    0.01990461822093   -1.38518349529009
H          -0.96860723465688   -2.71694741224082    2.30506159896821
H          -2.33780030462930   -4.45016242841372    0.16801308138140
H          -1.15055886440399   -4.87206127958512    5.27639621340867
H          -2.04166383196497   -4.07958769232562    3.95368097059455
H          -0.83983670352816   -3.15488415434820    4.89181291796764
H           2.16556830668330   -5.49141086669790    4.24276763687852
H           2.52739515222863   -6.94823689194058    5.21139987828235
H           1.01315834259448   -6.05203529321718    5.48034732830217
H          -2.95036835599545   -9.56574533822639   -0.71809605514578
H          -2.65627027875624   -9.45131379706180    1.03644090374386
H          -2.36315748597902  -10.98869112424628    0.18801043046109
H           0.62250278306650  -11.07832582671858   -1.84606615145797
H          -0.98803021140612  -11.77923370529682   -1.52659768943210
H           0.37873305765715  -12.84256469112920   -1.94805672874136
H           4.94102101649278  -15.61375619082918    3.95987751964652
H           3.61456495340463  -13.78212081301412    6.03085038215156
H           6.87516166443473  -17.87049018129965    8.13085173631843
H           2.96032382147005  -14.14933786208719    8.25089957386279
H           4.43880925204579  -13.28799567515906    8.68114892423614
H           3.01615970727160  -15.45995255880896   10.30110636349057
H           5.79978228162771  -14.23019757036422   10.66398680025822
H           4.91430435217133  -17.16186689731328   10.53468725159224
H           6.57166158142764  -16.56495157275091   10.55564948103470
