140
 SCF done       -258.086361434691          0.000850313113
C          -0.20199803461587   -0.38143664689199   -6.17764928527245
C          -0.96735371626058    0.78123252762906   -6.25285377450788
C          -0.29033956319798    2.06727387052221   -6.55241329205240
O           0.64563459337854    2.14582875864156   -7.32266960017585
C          -0.79708920105856    3.25214539020229   -5.83601278515913
C          -1.50629949978916    3.25206875725022   -4.66480612470863
S          -1.87261739025777    4.83051289766008   -4.12064544882194
C          -1.07474524986587    5.52231222856458   -5.48620195956873
C          -0.53453311152263    4.58094540070513   -6.29718129733132
C           0.19716489889730    4.86098650784893   -7.57426020868890
O          -0.40739899891961    5.09172119815660   -8.59641947004987
C           1.67144259328607    4.84877604774201   -7.48224473005679
C           2.33927584618789    4.76964170773526   -6.26162299767943
C           3.72040854243972    4.75788569240608   -6.23041252609947
C           4.44564238509657    4.82043356192862   -7.41020272782925
C           3.78768550513943    4.89947237484223   -8.62755813443973
C           2.40777795367573    4.91620821661351   -8.66442374782056
C          -2.34787389344735    0.70080971945537   -6.07959220949991
C          -2.93903255456908   -0.50915358708350   -5.78495207571498
C          -2.16648215038287   -1.66733991178214   -5.66062777921980
C          -0.79030178167351   -1.59158020079775   -5.87690744907977
C          -2.81397541624668   -2.91158170687195   -5.27558781655242
C          -2.82325527482397   -4.13843307738660   -5.90274361722658
N          -2.19335373778677   -4.51282381738848   -7.10409917463040
O          -2.42757830874650   -5.63375879743519   -7.52596735946755
O          -1.46077552911519   -3.71419446205058   -7.66053852651126
C          -3.70231011581622   -5.03864628772102   -5.18649500453256
C          -4.26785472200488   -4.35930325004116   -4.16429095327332
C          -3.74668270700012   -3.01339080316785   -4.15990530192752
C          -3.98655756364852   -2.03409038048194   -3.20611792388299
C          -3.05892248336541   -1.06047652519016   -2.74437844871690
C          -3.55320816415885   -0.47801885273282   -1.60479200380612
C          -4.84431759339681   -1.00013327070719   -1.33645194175957
N          -5.64492314849041   -0.56492639138895   -0.27791964516814
O          -5.18687291308035    0.29028926571624    0.46438380610523
O          -6.75763421436879   -1.06082899746312   -0.13603331830122
C          -5.17561547150505   -1.93425893971509   -2.34361078385891
C          -6.43302672892459   -2.47968151268119   -2.59333618587817
C          -6.79708561827686   -2.98847542822559   -3.82678098795516
C          -7.93466544448999   -3.67753037416324   -4.22780754369482
N          -9.03210058616449   -4.14421794072442   -3.53979493113809
C          -9.36180778592058   -3.92128254115127   -2.15063366358702
C          -9.96239219617454   -2.53778310882971   -1.92049270848198
C          -9.89898858884281   -4.86943236191942   -4.37007594410875
O         -10.93544200220541   -5.37430919898620   -3.98218579199632
C          -9.26015455938137   -4.86130605453883   -5.67759025925821
C          -8.08786738420874   -4.13104723652082   -5.55937391211686
C          -7.39706927801019   -4.12679559426488   -6.84114333099504
O          -6.35537215182811   -3.61494626243619   -7.18339428599607
N          -8.23653082152183   -4.87461716029573   -7.67629081746598
C          -7.86854836667813   -5.16016370801694   -9.04545414109533
C          -7.24934971905045   -6.54740596955420   -9.18408210413691
C          -9.35569628470019   -5.33472258576090   -7.02215598329335
C         -10.35144205971274   -6.08576066001750   -7.62836262354166
C         -11.46453826399402   -6.52588915832848   -6.92885430757857
C         -12.56702490551292   -7.22571539247107   -7.40542209815845
C         -13.05194820889038   -7.53192499805854   -8.72835460268149
N         -12.48020057858686   -7.34386757366367   -9.98687615411485
O         -13.24113167129480   -7.37187395667612  -10.94981192905790
O         -11.27537284225091   -7.17129946523898  -10.10793169285881
C         -14.33473464429953   -8.07173387367603   -8.61362597268946
C         -14.68919528077716   -8.12332014880419   -7.26712525191054
C         -13.63403475621076   -7.62097945887460   -6.50692481174945
C         -13.60818021353469   -7.55828842640067   -5.08120496219325
C         -12.56999250140500   -7.85750322319864   -4.23174948844757
C         -13.02234049486285   -7.77017203708144   -2.89634920399625
C         -14.35275253037859   -7.41704373186650   -2.87894731100427
N         -15.09677584142865   -7.32975331663696   -1.70149429328796
O         -16.31455259306266   -7.18754100663282   -1.77747720275751
O         -14.50031128488938   -7.43045921616396   -0.64270751877123
C         -14.78179984528720   -7.19718791880116   -4.25835381562688
C         -15.84261429047304   -6.59040030145949   -4.81487330563803
C         -17.12257899240033   -6.09268856827836   -4.23112767278323
C         -18.16409274383463   -7.15966810958978   -4.46030635414954
C         -18.96458806061519   -6.75909187991147   -5.52203937206804
C         -18.48639989837950   -5.39921047516603   -5.97074943444614
O         -17.60530804295388   -4.97283017467794   -4.99135260250221
C         -19.53892893198433   -4.39903917989639   -6.31442963587186
C         -20.54828966240445   -3.77227354502740   -5.68125713702529
S         -21.37680044623501   -2.71573149170204   -6.77498787295317
C         -20.35600862762332   -3.13075062333774   -8.08477087917181
C         -19.40528217795524   -4.04853574464164   -7.69988886562382
C         -18.29378917077448   -4.78237274065579   -8.20372204157091
O         -17.77241388176973   -5.54952410769171   -7.24853362171607
C         -17.70103980916464   -4.80440145686331   -9.49854889041714
C         -16.54201572117482   -5.57608070900222   -9.71657231871479
C         -15.94869002838608   -5.61431081895456  -10.95923334956232
C         -16.49278522727466   -4.88452068047063  -12.00914379824847
C         -17.63493904616849   -4.11747756144231  -11.81031668954027
C         -18.23890433972953   -4.07355645580377  -10.57339193155675
C         -19.99232772394131   -7.54761362523564   -5.99450658073029
C         -20.20690504482753   -8.76502822725261   -5.36375299382498
C         -19.41425734346525   -9.16488455146767   -4.29756138298715
C         -18.37530950140371   -8.36974759615987   -3.83460599339949
H           0.86242281392805   -0.31361669048578   -6.34439039173376
H          -1.81070211613135    2.40694158820743   -4.07916046205975
H          -1.04390955516177    6.58761852493812   -5.59850590012430
H           1.77958995733827    4.71943339007232   -5.33889065048200
H           4.23638541561453    4.69605605824007   -5.28325149738555
H           5.52539410383972    4.80487591125419   -7.37932123644573
H           4.35393164926304    4.94495576488412   -9.54606624671135
H           1.87260901862647    4.97123291892289   -9.60036967519883
H          -2.96007039657109    1.58165209846175   -6.20296698143575
H          -4.01084183467693   -0.57222458006634   -5.66933226306405
H          -0.18583409153707   -2.48092307010833   -5.79706570307547
H          -3.84464028759533   -6.06570413289791   -5.46139847562087
H          -4.92210892400326   -4.75609094151405   -3.41251411397486
H          -2.08138520092255   -0.90511938387032   -3.15787523436189
H          -3.06744493635668    0.25543662254607   -0.98859973929231
H          -7.15152822709858   -2.40005573696208   -1.79018698048331
H          -6.10659452222824   -2.83725515755949   -4.64779674117605
H          -8.46702555297558   -4.06724044602911   -1.54117270051333
H         -10.09780807836580   -4.68636691273885   -1.88695040912569
H          -9.28821986205905   -1.75415075214950   -2.25714126546821
H         -10.15174503471244   -2.39510277226585   -0.86082844597359
H         -10.90154055233285   -2.44486016930802   -2.46082379044876
H          -7.13603368493299   -4.39970777964599   -9.32828943393619
H          -8.74841077125340   -5.06639016200525   -9.68589486065229
H          -6.35917490435745   -6.62516558138831   -8.56445992943233
H          -6.96582264953777   -6.71545589135379  -10.21862144768324
H          -7.95687710733255   -7.31836660417755   -8.88901760313480
H         -10.24563994912095   -6.33478443120059   -8.67216417585934
H         -11.49892346895488   -6.29557750560501   -5.87116892308396
H         -14.92472056659201   -8.41669002521457   -9.44237373310444
H         -15.59414096679666   -8.55320749298085   -6.87836478203792
H         -11.58551801928022   -8.17307036275011   -4.51889556778792
H         -12.43316856460357   -7.97062083207154   -2.02056961078780
H         -15.81083569151504   -6.44623629943431   -5.88894736666355
H         -17.04469377341995   -5.78556295744299   -3.18765302871936
H         -20.86092804357552   -3.84462157000578   -4.65973972826302
H         -20.52561060993048   -2.67218412833898   -9.03699290918149
H         -16.12560434873878   -6.13533529005440   -8.89268479672352
H         -15.06331089368444   -6.21170225024925  -11.12136525927877
H         -16.02470624374373   -4.91275147578778  -12.98076817533505
H         -18.05306616629705   -3.55300828488117  -12.62989481763963
H         -19.12852888481842   -3.48516590645696  -10.42850374215805
H         -20.60889473969110   -7.22920316079472   -6.82179114372353
H         -21.00523391233313   -9.40521341784190   -5.70641773075978
H         -19.60930483430193  -10.11233196886678   -3.81911586685570
H         -17.76236005409073   -8.66244774372334   -2.99852226853316
