114
 SCF done       -200.163027704001          0.000498780625
C           0.55910031778669   -3.38369128816282    4.81007179187162
C           1.92694398926611   -3.11322509987078    4.78008545234355
C           2.64974181734680   -2.47889063082309    5.90590196824466
O           3.85993236760898   -2.50617207489921    5.99071927946579
C           1.82741976717122   -1.76639483701827    6.91693181970838
C           0.89658476162750   -0.82125028176025    6.60337084185296
S           0.25141967200869   -0.04242889674097    7.99310821014507
C           1.24133436226966   -0.98938497428451    9.02063572707749
C           2.02695516538853   -1.86613406111793    8.33179375160910
C           2.94468999174867   -2.81906605110562    8.99928502842351
O           3.50577158005946   -2.54957913294546   10.03886320076876
C           3.11206148457769   -4.11677232132884    8.30038681702935
C           4.36401893496449   -4.72361604295308    8.29179855214845
C           4.55548382330786   -5.90580720642073    7.60220136412276
C           3.49670049699262   -6.50012470692412    6.93483806801981
C           2.23918183196995   -5.91958821639617    6.97091781015830
C           2.04526274033825   -4.73045263769855    7.64812746785131
C           2.66521262234997   -3.49604498197549    3.65856210617458
C           2.05654729498109   -4.10166503251817    2.58330851309339
C           0.68112475608893   -4.36080151894944    2.60339321466885
C          -0.04993607886528   -4.00237469008892    3.74077690292033
C           0.02557541720627   -4.98403967558985    1.47649628483200
S          -1.58576315961225   -5.63296255328359    1.63153836735451
C          -1.62078331415718   -6.12449235269268   -0.03327977306220
C          -0.42232271249730   -5.78431294046592   -0.66844447611799
C           0.49055382927213   -5.15019117404687    0.19961906808768
C          -0.09976379911127   -6.02954928989056   -2.06501179410271
O           0.94623616423416   -5.73199133943904   -2.58894811583167
C          -2.74982053815528   -6.77373966992235   -0.58921119534833
C          -3.85283359698085   -7.09755056948926    0.13535338662936
C          -5.04452230784303   -7.75480079423181   -0.25291457829453
N          -5.46547245649478   -8.20061529427860   -1.48945188806312
C          -4.83434491013744   -8.02984518859755   -2.77541776219728
C          -4.95463211040657   -6.59663921418252   -3.28777231546509
C          -6.72374697583876   -8.82870662479794   -1.41495566970250
O          -7.29693429939932   -9.28966806634261   -2.38497303109271
C          -7.08255179916928   -8.77117914554747   -0.01885014443383
C          -6.03931922840150   -8.09999168063474    0.65922711354994
C          -6.37174993124687   -8.04491261306969    2.06531799881569
O          -5.79364724533520   -7.57593513002572    3.02284028839327
N          -7.61367644629970   -8.70651219455151    2.14648580079705
C          -8.31233150078406   -8.83334694460053    3.40211183035497
C          -9.43873595689650   -7.81108214219296    3.53350582776048
C          -8.04959579509531   -9.14207893237611    0.91685353607051
C          -9.25806498334373   -9.85007077615521    0.71167975568167
C          -9.66223662420056  -10.25981034298635   -0.51781586339128
C         -10.85900736156226  -10.97509080856389   -0.76777415286791
S         -11.98174984842213  -11.41539319285960    0.48380668609455
C         -13.03232402368282  -12.17258590856953   -0.66453547145711
C         -14.24587686900416  -12.82021707676542   -0.24655861636202
O         -15.04686317493479  -13.34566360198627   -0.98652612438310
C         -12.51533090908160  -12.10187617126328   -1.95242361093323
C         -11.29973300734289  -11.41588639889401   -2.00320314175984
C         -13.21478210948806  -12.67243802313038   -3.11271884221198
C         -12.82034549742838  -13.90574645905444   -3.65097448185413
C         -11.70838407402750  -14.64422079009215   -3.01263150514011
O         -11.29740223611824  -14.37578220248695   -1.90047833155649
C         -11.07204239246286  -15.72186523298707   -3.80662282303517
C         -10.66311836907786  -15.58587505873323   -5.10090715745990
S          -9.79496058534811  -16.95601630196873   -5.66523118630386
C          -9.96783060692126  -17.73052330650434   -4.14570306966917
C         -10.66327085479176  -16.97609560239698   -3.24901465883288
C         -10.96263228642395  -17.42772130655924   -1.86749056375301
O         -10.17351447810927  -18.09103052301580   -1.22978217914274
C         -12.28542831895525  -17.01761534810297   -1.34161216622927
C         -12.41182468345370  -16.73293171158637    0.01503345930512
C         -13.62868269883164  -16.32551409069816    0.52735103932975
C         -14.73265564183976  -16.22007618528403   -0.30311371461963
C         -14.61815255460426  -16.52251979505882   -1.65014080420845
C         -13.40040469060125  -16.91567689657073   -2.17124091553193
C         -13.52711428834996  -14.42804387817677   -4.73360276919426
C         -14.58506685516448  -13.73379489003082   -5.28541189891437
C         -14.95270454950360  -12.50245047864215   -4.76578003451137
C         -14.27080400097145  -11.97625445574444   -3.68477944075316
H          -0.02915639569415   -3.12061264207392    5.67577426141261
H           0.58145628316472   -0.50994243286605    5.62662286395627
H           1.18636475644650   -0.87432575382411   10.08498433949576
H           5.17874980241678   -4.24180787576078    8.81021078854613
H           5.53272307137562   -6.36446335867124    7.58157962212464
H           3.64837631990959   -7.42089255255820    6.39106985025291
H           1.40889741861266   -6.39109443029318    6.46557224355243
H           1.05881198286209   -4.29135230414340    7.69434651375624
H           3.72685423720270   -3.29958258082491    3.65560761098811
H           2.64542297705751   -4.39088308597852    1.72749378826989
H          -1.10985203652546   -4.21052539321793    3.77334682285283
H           1.45196736514641   -4.81905226130180   -0.14837188798805
H          -0.90039577779603   -6.52213002788371   -2.64972097904808
H          -2.67926782922183   -7.01151847775477   -1.63809963948964
H          -3.85190292252657   -6.84899851161558    1.19108663372240
H          -5.36767870068225   -8.70246062243052   -3.45441056149141
H          -3.79154659494217   -8.35339125604380   -2.72296840424096
H          -6.00328519985594   -6.33903103402492   -3.41431789733793
H          -4.45733392665716   -6.50584033025893   -4.24966545942484
H          -4.50879544385977   -5.88891260280081   -2.59249255921525
H          -7.56486460912717   -8.65713479496006    4.18085917027703
H          -8.69715025059754   -9.85165134565255    3.50603837947189
H          -9.03442951305103   -6.80384680144879    3.46991710049757
H          -9.93049132116600   -7.92799976960372    4.49514266905167
H         -10.17653524336995   -7.93930855354003    2.74462349887418
H          -9.87446420345627  -10.07480902153343    1.57140414769719
H          -9.04906598241612  -10.04399067163528   -1.38391440531985
H         -14.40312108518380  -12.79786683968047    0.84965818837886
H         -10.73993009523517  -11.25236014286052   -2.90697896822203
H         -10.79050551977751  -14.73698278854336   -5.74391609035988
H          -9.56737651796536  -18.71244267428107   -3.98921225860433
H         -11.53984955718373  -16.81814361222344    0.64575068808498
H         -13.71766172186427  -16.09094316810458    1.57813944034434
H         -15.68320961864890  -15.89901165615107    0.09379138121674
H         -15.47972611484485  -16.44172232858006   -2.29530516019844
H         -13.32030088506136  -17.17444482475198   -3.21786437035609
H         -13.25803632647539  -15.39442091628586   -5.13167371295555
H         -15.12940310240513  -14.15464082745170   -6.11733619539336
H         -15.77953523667281  -11.95785615894668   -5.19606397615604
H         -14.56318293413474  -11.02440054085520   -3.26693153945112
