78
 SCF done       -148.385463636112          0.000833762504
N          -3.14400124920496   -1.95016820084314   -0.44634381287293
C          -2.65366504129131   -1.40006820203200   -1.62469883889548
O          -3.17462447038389   -0.51499096636689   -2.24807690968039
C          -1.40348352121056   -2.13716315781762   -1.89882039766077
C          -1.19401505491568   -3.05254093274403   -0.93350719748227
C          -2.33976732359274   -2.95229964930306    0.04366796593506
O          -2.55178307781678   -3.59626881090762    1.03577983146365
C          -0.10445203485904   -3.99364914656112   -0.79298733557027
C           0.16804876972895   -4.60580436081594    0.42856390141521
C           1.22014594048582   -5.49895084122750    0.55097386248539
N           1.39685642682291   -6.10853796618467    1.84578529682948
O           1.00594431929969   -5.48841857195016    2.80912959698042
O           1.92056747713657   -7.20411207547419    1.89898607042883
C           2.05724241457857   -5.81906960384106   -0.53744876208699
C           1.75971668235709   -5.19397384193800   -1.75890336199126
C           0.71357776257988   -4.31395668464064   -1.88807922654375
C           3.20296864419976   -6.68555273352835   -0.40011073001404
C           3.74453289918003   -7.38001043178034   -1.42290534521886
C           4.88143892298028   -8.23800163679937   -1.41075624918970
N           5.54941604046600   -8.80770902538016   -0.35405114704069
C           5.23504246917452   -8.74852892602847    1.05520393445475
C           5.95521579198946   -7.59288623383225    1.74732623936559
C           6.65016595864999   -9.57354475872403   -0.78847757863429
O           7.38599932225116  -10.17373462331946   -0.02994513630749
C           6.63735548800791   -9.45437956757726   -2.22891951167913
C           5.52798143275162   -8.64297549806463   -2.57291006590517
C           5.49316327095277   -8.50459981012588   -4.00977070558601
O           4.74088685491458   -7.91073485895443   -4.75443845659400
N           6.59286536131759   -9.26791652984608   -4.45081381388187
C           6.93122204103854   -9.34199751815020   -5.85091779275364
C           8.06913104018121   -8.39033315462819   -6.21380883211101
C           7.28731439608345   -9.82803566028544   -3.40192227092238
C           8.45048493733025  -10.62977931402545   -3.56563961486106
C           9.12036136778850  -11.14388349779812   -2.50911072670604
C          10.32089124421072  -11.93802747762580   -2.56348168630791
C          10.90165156975160  -12.34746701137056   -1.35886033105801
C          12.06864553282792  -13.08908760621971   -1.34475428151416
N          12.66377687705735  -13.32881777938114   -0.04856624390088
O          11.91521807541988  -13.59836958412929    0.86273683965936
O          13.86458618030288  -13.19662893650911    0.04981056101506
C          12.69436278897193  -13.49869444973819   -2.53204141399929
C          12.11888396512468  -13.06193117182301   -3.73026281586348
C          10.97083405204264  -12.30400770517986   -3.75146684739240
C          13.85940294840925  -14.36369421783657   -2.58525617267597
C          14.06157211064878  -15.39366352414699   -1.76188487892570
N          15.16262845598218  -16.24065437216264   -1.79348141937447
C          16.28500342063122  -16.16009004608843   -2.61561839222386
O          16.46580983790652  -15.37054571296053   -3.50326687753566
C          17.18417685442832  -17.26536848230489   -2.17248413200956
C          16.60301746088259  -17.93068530394893   -1.17906276791547
C          15.27903991398277  -17.31266748383826   -0.89668283435057
O          14.44607806989779  -17.63350725363594   -0.09651006995313
H          -4.00158554922282   -1.65688742145070   -0.00288031220222
H          -0.79085187618485   -1.90598500712087   -2.74908455076242
H          -0.44409970380042   -4.40265421311786    1.29462131033423
H           2.38951602620912   -5.39361392650812   -2.61129273656718
H           0.51190518465286   -3.86652126705510   -2.84834956234433
H           3.62368691692264   -6.76681119421787    0.58795356706046
H           3.31225430251632   -7.29993252553628   -2.41247585687355
H           5.58734815268912   -9.69006519885903    1.48726774703478
H           4.15338592885288   -8.68673169193967    1.18692936578193
H           7.02961315148961   -7.75457844091804    1.71045294780286
H           5.64539033012097   -7.54050841745916    2.78704933926112
H           5.73561661195709   -6.64214469864582    1.26542808750743
H           6.02702706479812   -9.05292867691726   -6.39430151213442
H           7.18384134928007  -10.37312241118478   -6.11423139186703
H           7.77922440812873   -7.36641708480928   -5.99160066334651
H           8.28877025986456   -8.46619293110517   -7.27518310651602
H           8.97025528843218   -8.62302944104489   -5.65042203386063
H           8.78561936585205  -10.80880351031625   -4.57644369037198
H           8.74272993425751  -10.94339250406695   -1.51495117676742
H          10.45017286129602  -12.06361614886269   -0.41907646891888
H          12.58949785641985  -13.34828040431182   -4.65878968970863
H          10.56840794765711  -11.99451523151801   -4.70309813074610
H          14.55800844909598  -14.16778477749969   -3.38464454765542
H          13.36213927323301  -15.68340337899885   -0.98699691471799
H          18.13830197550082  -17.43392467079017   -2.63592052948670
H          16.96228087190107  -18.77859991541116   -0.62660860544783
