63
 SCF done       -121.223435250940          0.000622100904
N           0.11745184835170    1.15894035396309   -2.00914536076599
C          -0.24827643971475    1.06702037050425   -0.66467748333110
O          -0.76211824457955    1.94923340189751   -0.03271047495326
C           0.13129663974195   -0.29864029195765   -0.24928714058247
C           0.68010686300728   -0.93694088940949   -1.30207379654509
C           0.68326990190211    0.00119537952905   -2.47655691899042
O           1.09103921655261   -0.21107135697265   -3.58740784022095
C           1.19964832015919   -2.25406435470324   -1.42215121957886
S           1.86362806267441   -2.85288623879744   -2.93064458146326
C           2.14602058274251   -4.34289094429865   -2.05012745610409
N           1.75335987512098   -4.27603203104655   -0.79910537566566
N           1.23785313474359   -3.13680626639713   -0.45887595986406
C           2.73625802229544   -5.48502181448258   -2.65306338072551
C           2.92902914779675   -6.63729119656620   -1.96345060712978
C           3.51024764882512   -7.79294702396950   -2.54384066989276
N           3.71946083828616   -8.96856020962624   -1.85932590193843
C           3.45081267695439   -9.21165626881179   -0.46234742029869
C           4.52211350575231   -8.60119640936093    0.43760459699974
C           4.29917562204034   -9.95600339012201   -2.67144757500461
O           4.57674009788639  -11.07250013650778   -2.27768212428229
C           4.44216600706664   -9.32014808119273   -3.96240461776439
C           3.95199894293694   -7.99306543289154   -3.84912225021619
C           4.09324555230997   -7.35632537077451   -5.13927650708393
O           3.81756356098268   -6.24119255801947   -5.53454590832496
N           4.65760946038511   -8.35121720468588   -5.95780490443691
C           5.00646615028506   -8.07447144120047   -7.33033665948683
C           6.49969585395686   -7.80015634234688   -7.49274438039731
C           4.87387888510282   -9.52253021281445   -5.27048667852818
C           5.42474248973507  -10.69229492889899   -5.86428573941970
C           5.63998423629515  -11.82589267047935   -5.16048930226797
C           6.19756800026448  -13.04174609046187   -5.69043285365984
C           6.55632636242211  -14.08996223639887   -4.82592922161294
N           7.09488584164701  -15.21204092825619   -5.24892080052070
C           7.27490992617550  -15.33124759982861   -6.55609821613523
N           6.94932651743209  -14.43488129920778   -7.47548960413717
C           6.42317028271087  -13.30699468496932   -7.04949293348266
N           7.85896249895205  -16.51367972219217   -7.00920110989657
C           7.65531886310253  -17.77426289059827   -6.42796433582426
O           6.92632134863267  -18.02314783085276   -5.51370674125522
C           8.49179380660190  -18.71062368030363   -7.23193251506259
C           9.10320446513815  -18.03422370489906   -8.19893118160537
C           8.73748490877331  -16.59269367380606   -8.09939922184213
O           9.12663460109082  -15.67650826980860   -8.76278308860674
H          -0.02190001801259    1.98634535856557   -2.56947409659441
H          -0.02300467696740   -0.67971547845162    0.74160994532702
H           3.02653927930655   -5.40253457174477   -3.69096684214671
H           2.62059553796418   -6.67342600215159   -0.92893004127336
H           3.44590788733168  -10.29867764217001   -0.34165697900573
H           2.46143412119953   -8.82275156853200   -0.20747009731415
H           5.49471515110812   -9.02328743514390    0.19635868379386
H           4.29623589948816   -8.82145487406408    1.47707861476900
H           4.56987014594969   -7.52206800336779    0.31093150549092
H           4.43827963338146   -7.18319770975135   -7.61127672072557
H           4.68990849754777   -8.90669229459848   -7.96529100876896
H           6.78540919373758   -6.93983044028609   -6.89252355949560
H           6.72331051278136   -7.58626571996825   -8.53417641667581
H           7.09274115963991   -8.65513392148683   -7.17499803608296
H           5.67427537528408  -10.64245941189554   -6.91394168245376
H           5.39799514711449  -11.84496960549443   -4.10556700279236
H           6.41277564460689  -14.00433974741759   -3.75664887858688
H           6.15506358452050  -12.60530966539839   -7.82777782311455
H           8.53138550011196  -19.76063375157119   -7.00846324942434
H           9.77524654137279  -18.39166134304684   -8.95699085301288
