80
 SCF done       -142.115754513565          0.000957051453
C           5.03839346196804    3.95618184245504    2.98802127892976
C           3.79620845167045    4.30980508372466    3.78944971845917
O           3.72868161254572    4.99371081114409    4.76503092339193
O           2.71966040714711    3.72145106065132    3.23332308038136
C           3.09055953078385    2.87527909326136    2.15354293496563
C           4.45672893526026    3.41589761513474    1.68457077423080
C           5.31892469157642    2.41180599542396    0.93092841677823
C           5.42452338294309    1.07318500616855    1.64637375716258
C           4.05871893814846    0.46771673216067    1.93471387488196
C           3.08422571849925    1.40921101094887    2.65664402393511
O           1.80146628671488    0.83789781049459    2.40996241493676
C           1.80666372049094    0.08702863971866    1.29780805740764
O           0.83508879867211   -0.45143742050561    0.86148611108931
C           3.22005150423499    0.06891178621841    0.71133847320873
C           3.64240732496388   -1.21650251721945    0.07254596085464
C           4.52362330693009   -1.18709553451335   -0.99421347801174
C           4.96744324391771   -2.37559213678386   -1.57841664235467
C           4.47634810321007   -3.56553537601341   -1.02787950004083
N           3.63486216269375   -3.59979307520104   -0.01715097047920
C           3.22406364433062   -2.46776367644803    0.52446745007478
C           5.90239823196529   -2.33691644434033   -2.67256346182042
S           6.89749176364945   -0.92256473204104   -2.90045265774940
C           7.69332172423627   -1.54421451027533   -4.31885440950891
C           7.19711908324939   -2.80367193410127   -4.60714163429903
C           6.20661128014354   -3.24402529610216   -3.66305253592194
N           5.79496225399527   -4.48760569519629   -4.03433974064345
C           6.49125465152348   -4.84979555067885   -5.17256541053647
C           6.28403313377952   -6.08834182813249   -5.79717357677948
N           6.10553185572408   -7.09632821807486   -6.31507688318085
C           7.36032776421625   -3.85188544670588   -5.54781699527444
C           8.64752872828397   -0.70533734207461   -4.99052543903602
C           9.29064501177941    0.31541514832997   -4.28458923160718
C          10.10974856504558    1.21590163352690   -4.94321015637474
C          10.31792708833837    1.00254095083785   -6.30643435280253
N           9.74731955621595    0.02152498782931   -6.98109677578082
C           8.92841901374378   -0.80001646629559   -6.35997125475025
C          10.75789322093135    2.36889642267009   -4.22402175591801
C          10.99562873657501    2.00552431062235   -2.75659067090184
O          11.78886558091305    1.22230941730307   -2.33281161059399
O          10.15924652085695    2.69775135817581   -1.96445847455753
C           9.28177026796859    3.53638436828399   -2.70337048468206
C           9.92998557178817    3.66471359932475   -4.09737288358896
C           8.96039909487085    4.02247906970956   -5.22031622642420
C           7.65602202836825    3.23565116284142   -5.19700315955497
C           6.95215052587810    3.28063386446249   -3.84760625575979
C           7.85285534034173    2.94902924516855   -2.64549638347278
O           7.17101268412064    3.50946119646817   -1.52682623699582
C           6.32389994149830    4.48383659173456   -1.90535452576988
O           5.65684553571806    5.09387837712271   -1.12428870249887
C           6.35958617555172    4.62202630052589   -3.41776617943781
H           5.60360297198458    3.20305115770468    3.53981141084372
H           5.67096797258679    4.83050446115366    2.85456153293787
H           2.31442839889519    2.97674094191446    1.38831861958224
H           4.27284210533235    4.26499355081723    1.01789255811145
H           6.31165649868931    2.83917474826544    0.79137109645250
H           4.89514011105952    2.26905459096228   -0.06473660464225
H           5.95601256260585    1.19694221733551    2.59145396694389
H           6.00172571301194    0.37361735814613    1.03876190965309
H           4.19035570486511   -0.42771961291518    2.55473123894032
H           3.22604783942684    1.41675307914059    3.74144240607609
H           3.25449483331341    0.86692506791089   -0.03953132391288
H           4.87192400894808   -0.24170775538890   -1.38912733560696
H           4.79724717570990   -4.52956662622357   -1.39907665275544
H           2.52742958245180   -2.56473328654392    1.34476752132310
H           5.07487679963290   -5.04022733046122   -3.60159646708606
H           8.02906348676217   -3.88441917592769   -6.38367381128226
H           9.14912330081968    0.37539623816131   -3.21544408250563
H          10.97322866135576    1.64454279007818   -6.87971877059744
H           8.46046739362359   -1.55578811038328   -6.97385866830847
H          11.71888244911624    2.56968282410900   -4.70390348442284
H           9.25811413269684    4.50208733473086   -2.18549203392712
H          10.65948782220416    4.48008366366442   -4.02612022964005
H           9.45622013004723    3.86193256395928   -6.17860404598980
H           8.73762927353584    5.08910053525918   -5.14583396870116
H           7.84654358275342    2.19389985391199   -5.45293159858134
H           6.98432523930904    3.63996927705770   -5.95610222335791
H           6.14201688482822    2.54232355001415   -3.86205972488879
H           7.91833793889169    1.87517100244857   -2.45795413455770
H           7.00884837342611    5.46104957063281   -3.67382772764761
H           5.36712489419806    4.82053822873300   -3.81521796608664
