107
 SCF done       -201.811804295476          0.000730203616
C          -0.21678440528634    4.92197238255946   -1.91015218007624
C          -0.43227002280311    5.74793452925679   -0.64932495249105
O          -0.88690784249841    6.84743481954598   -0.57024306849553
O          -0.02756996685858    5.04052575780097    0.42280880829650
C           0.56927062105650    3.81041474229017    0.03556244984084
C          -0.02409451569207    3.51303728569531   -1.35479305991865
C           0.80066616585477    2.55195104923187   -2.20209155345580
C           2.26811619730776    2.95135314071735   -2.27713941576305
C           2.90267981946396    3.10152211120587   -0.90120292000260
C           2.10798710266442    3.97594878275181    0.08290340458416
O           2.57046991985941    3.57451538274693    1.36715143564964
C           3.06806248294448    2.33115111540380    1.34740986927332
O           3.44281718577934    1.75319233749048    2.31977562217889
C           3.07715709675484    1.80380697837129   -0.09966313911702
C           4.32113865126239    1.05637944349501   -0.40196672141172
C           4.43458761912689   -0.21558167872390   -0.86612739363555
C           5.82990430910891   -0.53791454631938   -1.00760857265323
C           6.56802468022850    0.65932382333541   -0.56660354617295
C           5.65428634908812    1.59951828175222   -0.20560197865692
C           7.95469601527286    0.80754285858629   -0.44154492252759
N           9.08129472983338    0.97097986295476   -0.28982399832751
C           6.37903888018044   -1.71905465437151   -1.43363159763739
C           7.76322022479665   -2.00971022902235   -1.61433210495936
C           7.90952364139250   -3.34396821585297   -1.93396558995970
C           6.58114407030013   -3.93696147511569   -1.99438717462751
C           5.66120069598137   -2.97216984942865   -1.73114353495556
C           4.27452514732813   -3.16005108872651   -1.74646467658508
N           3.14095936083165   -3.34271643099028   -1.78066417242217
C           9.17023507800230   -3.95615879813293   -2.16182820196149
N           9.47045323611165   -5.28924155260195   -2.08051496570423
C           8.59058141645641   -6.37022063656204   -1.72575175545724
C          10.84553667959967   -5.53307585300639   -2.29604520482278
O          11.34159307172238   -6.63628506458909   -2.23461701074982
C          11.40152063989255   -4.22461879682923   -2.56895691209569
C          10.35713398728620   -3.28269943256466   -2.47421584170160
C          10.89135591813592   -1.97690682266999   -2.81573929269413
O          10.38212533690534   -0.88412856243848   -2.91575441363818
N          12.25516461464690   -2.22598796943672   -3.06640778608301
C          13.15804895112848   -1.16358809685078   -3.41709512817388
C          12.57960643570794   -3.55095337865264   -2.92194946065282
C          13.88579838162904   -4.04975991731829   -3.10555793810660
C          14.20403443494247   -5.35986113747983   -2.90505918175576
C          15.50477998181414   -5.90916635051740   -3.04924816004377
C          15.71335075239145   -7.28086222260732   -2.74476309796730
C          17.00650201863410   -7.90480569484716   -2.85458052074285
N          17.16997439449830   -9.17860956082921   -2.44251825108434
C          16.12813209836400   -9.86618935704069   -2.06181980919877
C          14.81701576693223   -9.27343040487418   -2.06371871430287
N          14.65801972174893   -8.01030820495494   -2.35812725248239
C          13.68891458692295  -10.05037758254396   -1.69703491700756
N          12.80636068610640  -10.71206996188300   -1.38991006154815
C          16.30476622620758  -11.19204056401801   -1.58742616783883
N          16.40797089977715  -12.25665250072683   -1.17975800832835
C          18.11624242032291   -7.22218772147755   -3.36538149552333
C          17.91886739923522   -5.87457136338253   -3.68263586216427
C          16.64539001773864   -5.20854786449718   -3.50496499625923
N          16.71854042908995   -3.92371094772376   -3.86050830574513
S          18.20574509578602   -3.59282884261184   -4.36557475247626
N          18.85210747213519   -5.04106314230589   -4.16308284799149
C          19.41142147218683   -7.89859518535529   -3.68882165039257
C          19.22761100930801   -9.41193554447850   -3.88430700938434
O          18.60471523691609   -9.93056979207022   -4.76254343655113
O          19.94696491085036  -10.08596166597240   -2.98427569850644
C          20.54517281605364   -9.23491693350881   -2.01677961740963
C          20.56352561096562   -7.83479177317497   -2.66460275307089
C          20.56144509854007   -6.66722400005206   -1.68569355115184
C          19.54494525854310   -6.82363762026752   -0.56367106312804
C          19.72018572294586   -8.12614055202697    0.20673725800603
C          19.78496865352700   -9.38627521386815   -0.67717563785001
O          20.46654416287715  -10.34749066329169    0.11893139656277
C          21.22100229031568   -9.76288609642062    1.06430909244417
O          21.94063643471453  -10.36989120897861    1.79706021510498
C          20.99822637633876   -8.25634761407642    1.03069294787455
H           0.67300496587537    5.29614330398680   -2.41896071995752
H          -1.06468474275785    5.02219263465354   -2.58374915140476
H           0.28227534042661    3.06407053385215    0.78287899525257
H          -1.01523698715488    3.07274722120328   -1.19876347186829
H           0.38081259073556    2.52047239330406   -3.20841129694719
H           0.71135790749080    1.54831325506816   -1.78266653730574
H           2.36755437290226    3.89787964409641   -2.81180702570600
H           2.82382142264148    2.19933300209569   -2.83996901649667
H           3.89348091135511    3.55405834719826   -1.02481585462244
H           2.33988818011008    5.04061336183585   -0.02090984384465
H           2.21403221685444    1.14090738192019   -0.21589909028493
H           3.63093205110388   -0.88393649587018   -1.10490342921459
H           5.87098096807150    2.57377193921567    0.19282115137479
H           8.55661177529723   -1.29647891903184   -1.51249930075000
H           6.35640189795749   -4.95371411992635   -2.25295620039099
H           8.00488263608523   -6.12009172820894   -0.84076672664078
H           9.22153109733127   -7.23466025031945   -1.51370003396959
H           7.92467601788266   -6.62453173872665   -2.55302254214081
H          12.57098485702531   -0.24511471221704   -3.43477497280646
H          13.59604518373288   -1.33160754907908   -4.40254164511890
H          13.95375959231336   -1.06706063677937   -2.67658308163395
H          14.65808989769426   -3.35571871053728   -3.40285789899619
H          13.43960004851007   -6.06287826112784   -2.59951073773612
H          19.74426141442000   -7.46399083836185   -4.63688712390070
H          21.56238030959284   -9.61007260681533   -1.85631283383988
H          21.48688346075880   -7.76966037485411   -3.25010694165162
H          20.36193223540130   -5.75038115356435   -2.24271638098520
H          21.56192883103312   -6.57504674912057   -1.25885207735352
H          18.53464906819536   -6.79472689871356   -0.97433583896447
H          19.64089659601524   -5.98749668612891    0.13175863655597
H          18.86625208505662   -8.24477945423568    0.88348816109232
H          18.79697012157222   -9.79500535047930   -0.90340635870073
H          21.85877874747066   -7.79409566975434    0.54481328052534
H          20.91872751166603   -7.85771846252675    2.03952641321356
