96
 SCF done       -166.745236399671          0.000862508914
C           5.24257810689176   -5.23703534661984    5.77523487914756
C           3.76327853587227   -5.57509401661675    5.89808770669854
O           3.27984684018790   -6.57955966027807    6.32154029495540
O           3.02969618326377   -4.53857577892940    5.44771928974758
C           3.85467887156618   -3.51478616557182    4.90952864156989
C           5.22167545351271   -3.72230180300786    5.58819929531793
C           6.39455521750417   -3.11095939765529    4.83303451683725
C           6.41447577841284   -3.51148159364593    3.36435685555089
C           5.11967183149348   -3.16086617549164    2.64108549913989
C           3.84623897075470   -3.63662582295709    3.36509724281248
O           2.80747494782643   -2.80082444857808    2.85979064872882
C           3.28867531377937   -1.65450461267366    2.38771616231499
O           2.61818886352323   -0.75904070984292    1.97054109700975
C           4.82726755901879   -1.67057839057878    2.44502396054619
C           5.38681100600818   -1.05919406718204    1.21075677365997
S           4.71192890805474    0.39679472030758    0.58571596455887
C           5.77850159727772    0.34959188759888   -0.78772980227764
C           5.52652549796336    1.28791824195401   -1.85232795092769
O           6.06203938050709    1.29736625064019   -2.93724205889102
C           6.62763894151434   -0.75229178616756   -0.73249995606255
C           6.37973895226523   -1.54329655901866    0.41222368959938
C           7.57962781031337   -1.23724220703594   -1.70329606542010
N           8.51961349669157   -0.54379884985760   -2.41302731697737
C           8.92694923334898    0.83092654615019   -2.24134385794497
C           9.37600805013014    1.12555348000513   -0.81460569739345
C           9.23069204409097   -1.39206155371628   -3.28377707346446
O          10.13455103730201   -0.99807920570545   -4.00354314567382
C           8.66391978849810   -2.70112275400393   -3.07260379587116
C           7.67151778650017   -2.57235618151608   -2.05864403650165
C           7.07889390040489   -3.87010617771739   -1.84078149079249
O           6.25751421301762   -4.27366100728453   -1.03906692131974
N           7.72567826340327   -4.70215057806979   -2.77513013355793
C           7.37842466415224   -6.09632712461535   -2.90427538911314
C           6.38363394054926   -6.32930509334912   -4.03911674320070
C           8.66711496592343   -4.02108476275823   -3.50955250902140
C           9.46594406357407   -4.60366945286602   -4.53893981620282
C          10.50365553252834   -3.90744822355093   -5.04441693490472
C          11.36245318471904   -4.23840748620187   -6.15172729749341
C          12.49648333546637   -3.44290177194345   -6.34547282606150
C          13.26785937162095   -3.57958920614004   -7.48650411083280
C          12.89643478575633   -4.58249513697584   -8.38103972100912
N          11.85341162422685   -5.37279132436736   -8.19648619038343
C          11.10130369513084   -5.20730408657249   -7.12795294406406
C          14.45223372132103   -2.68844211719204   -7.73744112397254
C          15.26990350452142   -2.56264849504004   -6.44809227852960
O          15.86395269732433   -3.44111741515700   -5.89892322765466
O          15.22998710234074   -1.30799825682212   -5.98803810223452
C          14.41990299092834   -0.44781691377475   -6.78128735959887
C          14.17262254175675   -1.21484251686959   -8.10080029504250
C          12.85343710178076   -0.88434541569019   -8.79942636480505
C          11.65067662952779   -0.75450599285043   -7.87161112088138
C          11.87769796689632    0.21043340780570   -6.71476075957253
C          13.19427992950087   -0.00374442223616   -5.94464269407977
O          13.49064936713325    1.26333057439352   -5.36766070173241
C          12.86090089353178    2.26291736955887   -6.00768842049079
O          13.01986251320035    3.41349187201283   -5.72926738703671
C          11.96669343695969    1.68713539544385   -7.09250829213783
H           5.64385049026819   -5.75948354100864    4.90555577831646
H           5.78622491881193   -5.56888427619664    6.65677868867473
H           3.39507893135839   -2.55824885993231    5.17836329038407
H           5.16820542363499   -3.25955082475308    6.58005265847063
H           7.32350442755144   -3.42737392294871    5.30948126650059
H           6.33982197783644   -2.02389945512241    4.91984658395103
H           6.57911803208523   -4.58629995044701    3.27486592482465
H           7.24711142654915   -3.01325173609306    2.86729095720743
H           5.13415783576987   -3.62793786125224    1.64965870691641
H           3.57996904892818   -4.66533900747783    3.10514769429836
H           5.11503178675100   -1.07986671530600    3.32388401726379
H           4.74020830317664    2.02201964640435   -1.59510527125346
H           6.92557067303509   -2.44639207665264    0.60876978240375
H           8.11365034030385    1.49459266900051   -2.54079705472950
H           9.76288634537749    0.97413473762861   -2.93228484519945
H           8.55386929714181    1.01136553285418   -0.11171748401106
H           9.74114096698305    2.14693383375997   -0.75629091341106
H          10.18086484326228    0.45318453827535   -0.52408557374263
H           6.92069138191535   -6.38631978809353   -1.95410373967303
H           8.28757124479869   -6.68512406053584   -3.05324316919770
H           5.46999702883874   -5.77106192452476   -3.85038734798968
H           6.13873483087078   -7.38583194543619   -4.10354454680022
H           6.79470581305220   -6.00519435084972   -4.99260574029357
H           9.22169471708622   -5.59521372295107   -4.88903309212076
H          10.71581112580574   -2.94159892868576   -4.60578895189809
H          12.75113765035815   -2.71393385386202   -5.59183771751227
H          13.46121434824969   -4.76111710334484   -9.28677161689380
H          10.24192873070978   -5.85979001117376   -7.05743015433867
H          15.07423270284810   -3.16135141521360   -8.50182988449839
H          15.01330752167173    0.45575034739849   -6.96575021027886
H          14.97687922536858   -0.92030366771910   -8.78485717124324
H          12.64976924862913   -1.65652449702440   -9.54376072874687
H          12.98820571149797    0.05569452156157   -9.33904528469802
H          11.38328340457461   -1.72878226852834   -7.46661109747968
H          10.79671089268608   -0.40084517521793   -8.45236355751749
H          11.06205311992753    0.08123995960686   -5.99574032953303
H          13.07278170548229   -0.69616273301013   -5.10753705984721
H          12.45430767806319    1.84320060648810   -8.05672345839274
H          11.00614490706697    2.19694759989910   -7.10794995274043
