86
 SCF done       -153.361157555893          0.000780290026
C           0.06658562033460   -4.16508896155523   -1.97233592159983
C          -0.03463494012415   -3.48549326981774   -0.77674986556574
C          -1.20732641528063   -2.81177188295899   -0.44995370363550
N          -1.20952508881869   -2.07349742710612    0.78361115374423
O          -0.39258442518599   -2.39028390909118    1.62361165593081
O          -2.00884059158343   -1.16797375031903    0.91581295451558
C          -2.31976699712414   -2.81803217996663   -1.31031085497108
C          -2.18425253149276   -3.51957074919773   -2.51388399091949
C          -1.01530259031845   -4.17391940791178   -2.84350990743285
C          -3.57900286449935   -2.18889727861325   -0.96699702442355
C          -4.39749287513425   -1.62022920746842   -1.87037437265978
C          -5.64422201327795   -0.99919316913492   -1.55406290843291
S          -6.57275663679460   -0.24908408258105   -2.82213723636217
C          -7.83168101514969    0.22169216894731   -1.72119740401804
C          -7.51086137937307   -0.18573583590358   -0.42531711381522
C          -6.28375285732296   -0.86858677238830   -0.34373599811230
C          -8.26065252247244    0.10254631024707    0.72921064350730
N          -8.80509303575782    0.33744060817862    1.71119162515390
C          -8.95406483115732    0.93314558949488   -2.21836413296581
C         -10.10887025251241    1.12291243322248   -1.53079918931036
C         -11.27296228087237    1.83217641929719   -1.92294813365249
N         -11.45905048829263    2.74079296084620   -2.94652470062826
C         -10.48039909419649    3.30703711407908   -3.84389098387847
C          -9.46998486591506    4.18995915178056   -3.11725777202386
C         -12.77616220560703    3.23936948312300   -2.96325117473935
O         -13.16472403728318    4.06827294836515   -3.76670745611416
C         -13.44391541618107    2.55535249792523   -1.88401078393830
C         -12.49339201853282    1.70754688290265   -1.26694978607974
C         -13.15307432799657    0.98042119851596   -0.20508157715820
O         -12.77053954137932    0.12953447505903    0.56632715014973
N         -14.48049314713754    1.46211672180885   -0.23974734132932
C         -15.45415992460165    1.01868226997646    0.72723513505742
C         -15.64577906305626    2.03603233313901    1.84970893695965
C         -14.66593348922695    2.39932015526753   -1.22834470739390
C         -15.90298659251459    3.04131254007680   -1.48135474853142
C         -16.04309445590316    3.99310537787679   -2.44018338645143
C         -17.25232198652970    4.67764471971550   -2.72530197107468
S         -17.24869696427264    5.93761586739481   -3.93307503685606
C         -18.93441063000175    6.25858613002068   -3.69491513131960
C         -19.45772033414717    5.40649367071246   -2.72056035458332
C         -18.51045515477990    4.52446553512250   -2.17981719200716
C         -20.80625493586433    5.43362354084424   -2.32392572426827
N         -21.90571277933998    5.44515590467781   -1.99735483113020
C         -19.65281116640361    7.26276840869256   -4.40021624568047
C         -19.09810151198946    8.06941289977791   -5.32780588358127
C         -19.76365275210591    9.11200309453925   -6.06880089826259
C         -21.11107554844199    9.43030336646341   -5.90445698415339
C         -21.69962647672781   10.44117912488234   -6.64735693716601
N         -23.10927369609446   10.65893769767929   -6.44003912062545
O         -23.57650222456235   10.29822335461770   -5.38012143299623
O         -23.74949844741348   11.17253061029885   -7.33325230594034
C         -20.97280068711013   11.19761222319990   -7.58128654573735
C         -19.62121488361810   10.87042751718515   -7.73207500835181
C         -19.03503964658956    9.85830329839572   -7.00816140194837
C         -21.54572805444231   12.31108051495163   -8.32704732589204
C         -21.20658824081147   12.61645258520499   -9.57332469239403
H           0.97852544162144   -4.68107850546929   -2.22719577438504
H           0.78958046522509   -3.44902845467356   -0.08036806847796
H          -3.02983559458368   -3.56751180858948   -3.18237144661160
H          -0.94603335930413   -4.70362772194689   -3.78157166880484
H          -3.84703181480786   -2.16115131556105    0.07830647039269
H          -4.10783184806116   -1.57559164621629   -2.91212008997888
H          -5.88729473645684   -1.23586981930464    0.58535905178184
H          -8.84559875666899    1.28977816713497   -3.23170147899424
H         -10.21882283922206    0.65262344656317   -0.56184971583351
H         -11.05608282203517    3.91514372831198   -4.54916511710430
H          -9.98243239015247    2.51383127831873   -4.40798354853786
H          -9.98505519743351    5.00692756585754   -2.61791454186998
H          -8.76745807477050    4.60827044591895   -3.83298516310453
H          -8.91627152659908    3.62472488695076   -2.37132232172063
H         -15.06029000785662    0.08671828137898    1.14274596521001
H         -16.40247150297196    0.80654774298591    0.22478393592095
H         -14.70322567428210    2.19643940691262    2.36699913786505
H         -16.37496468781185    1.66360490471006    2.56388114011870
H         -15.99227933636404    2.99050211749288    1.45885758799526
H         -16.74955722655667    2.75476336021769   -0.87526377465059
H         -15.18218876380443    4.27165782997784   -3.03389060090476
H         -18.75311670593315    3.80377492786961   -1.41994348092218
H         -20.69836933583566    7.34535615128797   -4.13520078349346
H         -18.04586768082935    7.93998149549030   -5.55221040160054
H         -21.73236746604333    8.89318761676427   -5.20452181598274
H         -19.02627246472418   11.44752051710520   -8.42299483710589
H         -17.98860463355850    9.63496444123811   -7.15671080769802
H         -22.29744465263983   12.89976255509455   -7.81993633640845
H         -20.50889549435938   12.02314099327434  -10.14107429883769
H         -21.64512600022197   13.45662559032595  -10.08182927113975
