94
 SCF done       -173.095683367650          0.000339545685
C           3.41735986220491    1.21242386681957    6.08702015268968
C           4.88949159270100    1.57071591565594    6.26359009230239
O           5.49041492242808    1.73304801859028    7.27970542605766
O           5.47117927515156    1.69109078902803    5.03888754307489
C           4.54067299851046    1.44892028381080    4.06410328517006
C           3.28433402818923    1.15614791685788    4.60366748012010
C           2.20219626823611    0.88220718573755    3.78831415255463
C           2.45055855063461    0.91524313788330    2.42772225158661
C           3.70730464347940    1.20028080021952    1.88939424636459
C           4.78876004411461    1.48123007734742    2.70312562631588
C           3.58684163185073    1.14663905004160    0.39998378687047
C           2.09673229949820    0.78346419393875    0.23100516071328
O           1.50499288582589    0.61830174743729   -0.78893554602034
O           1.51743035425035    0.67478230387416    1.45123347208116
C           3.87635372733935    2.44021296573153   -0.29707388980905
C           4.39479273912059    2.50256441044770   -1.52308156721757
C           4.64295814054256    3.71244899491614   -2.27663798563294
C           4.59991381024141    5.01143015191387   -1.75621353300318
N           4.79419751347859    6.08343545179146   -2.49231893359937
C           5.05405654501866    5.90646184543191   -3.79107659053671
N           5.17143255933578    4.71322159830100   -4.37683580368540
C           4.96933325677649    3.64924020633539   -3.64215911025148
C           5.22246912362746    7.04660434988563   -4.66119492360328
N           5.39830284242031    8.34441589159100   -4.26012207015464
C           5.41667396212857    8.85969419350793   -2.91291151013075
C           4.00539149758498    9.12535261733738   -2.39798525188348
C           5.53267741040161    9.21570219441016   -5.36394620762260
O           5.71600137440275   10.40988627047166   -5.25598168193446
C           5.41665470407398    8.34671807282758   -6.51213348825701
C           5.23772736678315    7.01738573938756   -6.04726140208719
C           5.10205203537298    6.16346302270758   -7.21100296970738
O           4.91970785596602    4.97849914545424   -7.35494702935743
N           5.23273682643828    7.05400062344313   -8.31217648407199
C           5.07870542416721    6.54010424688625   -9.65112203520631
C           3.69268814447110    6.83716038547821  -10.21872031747420
C           5.40665838142710    8.35254284033311   -7.90224858007569
C           5.56248903572020    9.54489536377655   -8.67013592471114
C           5.62179249136414    9.71980243881191  -10.00460322039556
C           5.77464096006448   11.03477072929041  -10.59383561086418
N           5.84067100906759   11.07975223639608  -11.92791371904558
C           5.97183136195311   12.27173038026707  -12.47942458385185
C           6.03042199821509   13.43874972996842  -11.73487209328262
C           5.94732039727596   13.29858691248483  -10.34337592608000
N           5.82963145053712   12.09463510869579   -9.79410336105554
C           5.97521469384216   14.40349147736095   -9.39435624000929
C           6.00087778832070   15.69571925013767   -9.70757814777667
C           5.98202728984852   16.79283769939141   -8.68789468359311
C           4.59044054070634   17.45643721141681   -8.65966809999595
O           3.54563648232916   16.94007062182995   -8.41728966989232
O           4.71017273079279   18.77076976284233   -8.97328448448722
C           6.02882588405962   19.07307676983382   -9.19824884458708
C           6.85354634062662   17.95703556680617   -9.03951592242404
C           8.21963483440447   18.04042391137471   -9.23414283312152
C           8.70085645868034   19.29040366055042   -9.58159468013248
C           7.87663461582308   20.40859011966848   -9.73017891130689
C           6.50968594469376   20.32302039781298   -9.54489831841863
C           8.74257965502468   21.56195764597844  -10.12617346896317
C          10.13274324203252   20.90722109608328  -10.13657306127547
O          11.17879234639619   21.42187087188907  -10.38091066794729
O          10.01644681863923   19.59002785395773   -9.82080544125553
C           8.41749828644048   22.12064104336539  -11.48383952352334
C           8.32173115122943   23.40971106973734  -11.74466870798096
H           2.78885651423764    1.97292839645057    6.55365611719187
H           3.20330244812990    0.26213295306447    6.57935248238908
H           1.22443280551176    0.65601453871134    4.17839790575124
H           5.76478866543961    1.70901742884223    2.30944276687011
H           4.18367694622742    0.34383896486333   -0.04435092507082
H           3.58770695878368    3.33056752195784    0.24265880510269
H           4.63696695757305    1.58447822067163   -2.04390740304540
H           4.41039610257733    5.20093438929528   -0.70718083087155
H           5.06525895847528    2.69840064609175   -4.15144659741661
H           5.97842338522184    9.79737188356596   -2.95380538623307
H           5.92572354216793    8.14596954011893   -2.26378340668364
H           3.49161326953481    9.81995686243332   -3.05798074290272
H           4.05341160505280    9.55831710017352   -1.40293591121859
H           3.44649155887745    8.19471618812008   -2.35056262359302
H           5.20897739408589    5.45660037110565   -9.56604748027809
H           5.86889388536496    6.93620975226845  -10.29269245681703
H           2.93448154699511    6.35938548650573   -9.60306784226382
H           3.61649114148149    6.44558778867031  -11.22937757063448
H           3.49733804263957    7.90668293238452  -10.24025525673224
H           5.64792962308321   10.43340475890366   -8.05543658534971
H           5.55972773941477    8.92483221168791  -10.72870087841068
H           6.02907097338939   12.28688537048380  -13.56091367222413
H           6.13571094347015   14.39815233075882  -12.21164899304304
H           5.95128004168503   14.08481073436006   -8.36152238964157
H           6.00671622675881   16.03205413304473  -10.73519430428760
H           6.19206161855409   16.38138396938409   -7.69645335098550
H           8.87162118035460   17.19047912271597   -9.12443713130783
H           5.85645006526008   21.17064097271708   -9.66398946565382
H           8.73906626196011   22.37034365068274   -9.38924470130983
H           8.27362765592071   21.38075985672884  -12.25935026012534
H           8.46849910349528   24.15872573601988  -10.98462144199421
H           8.09811843200309   23.76814675167384  -12.73419008779080
