90
 SCF done       -190.569856746443          0.000706576765
C          -0.25643256364821   -2.34598101447413   -5.36742155593752
S          -1.48183090661761   -2.06366453970678   -6.52598290522113
C          -2.71105571354121   -2.73590709456601   -5.49692068613767
C          -2.13126014374994   -3.19806808186190   -4.32252752714591
C          -0.74387675284460   -2.98696524687910   -4.26015898784712
O          -0.00048329031268   -3.39416420960411   -3.18636020029645
C          -0.60409231290096   -4.05587914101227   -2.17636874104550
O           0.02799173227760   -4.40887181548728   -1.22489811143788
C          -2.11168778197479   -4.34577870870399   -2.27782772010513
O          -2.68941156023806   -4.96601678769730   -1.43050590858778
O          -2.79406470632727   -3.88120652345882   -3.34085903579451
C          -4.08838475783002   -2.86146998338338   -5.83439189891082
C          -4.67929035435390   -3.13314198877483   -7.06080823870651
N          -4.07626801458769   -3.07202024285092   -8.31579070911190
O          -3.01205182728679   -2.46074281815648   -8.40962045032718
O          -4.63196175187638   -3.60733630055350   -9.25533389564346
C          -6.04003273142036   -3.55601241028086   -6.84850564062682
C          -6.29249102469816   -3.55506050848810   -5.51643316714836
C          -5.13077144270255   -3.05895960861902   -4.82828555067509
C          -5.08680189918384   -2.59744758574153   -3.52346149919035
C          -4.40771092934867   -1.43236200641324   -3.06673571419248
C          -4.84532098590643   -1.13328240769785   -1.80594196498139
C          -5.74884251228093   -2.14979868656797   -1.37215852462988
N          -6.31858691634661   -2.17732793549836   -0.09081283412119
O          -7.08881984913178   -3.08587792682517    0.18635524965030
O          -6.02411150184891   -1.27633569086830    0.67505469101534
C          -5.88340315277044   -3.10048494204982   -2.39035221276863
C          -6.39735056514214   -4.40057410697811   -2.27352599693152
C          -6.00995767516846   -5.41316472894359   -3.11281330238688
C          -6.39723260389985   -6.76057580118085   -3.16268024520057
N          -7.31995956245002   -7.47660240850598   -2.44310869542123
C          -8.08422941378569   -7.03391493668554   -1.29959005873421
C          -7.23479700249497   -7.00321024944483   -0.03170855509560
C          -7.39769801999608   -8.81940091802327   -2.87515672806545
O          -8.13929672416431   -9.64262935109550   -2.38945525177142
C          -6.44398763919713   -8.90081671466570   -3.96784087666365
C          -5.85204635155267   -7.63924691686410   -4.11365279331822
C          -4.90940080706223   -7.70637508482205   -5.20709555080661
O          -4.18365493779189   -6.87405727561187   -5.70664498353341
N          -4.97478595823641   -9.05632109898992   -5.64028913310168
C          -4.29326866960625   -9.45052756953971   -6.85263055511374
C          -5.27302020352351   -9.75170616014671   -7.98240919758428
C          -5.88447653602434   -9.77243267529109   -4.90952989332235
C          -6.24181993415401  -11.14731234582025   -5.00921465196853
C          -5.53129349182400  -12.16050001765414   -5.54134437523084
C          -6.01338230910708  -13.52276749010454   -5.57809240754330
C          -5.22405440169202  -14.60882302572136   -5.31556780673046
S          -6.08789110091984  -16.08803784676719   -5.35385933208751
C          -7.53276822646450  -15.27503004304637   -5.76340023812422
C          -7.36559638885269  -13.92083585861699   -5.85556737347443
C          -8.40705986429432  -13.01941375053056   -6.36646577016917
O          -8.22048010566442  -11.94343124702558   -6.87206561691695
O          -9.63638969354046  -13.58701105664683   -6.24500887970084
C         -10.71520118573779  -12.88078507195005   -6.68413670527609
C         -11.93282583951825  -13.43315577723200   -6.64700638111383
C         -13.13096656111509  -12.77797965179257   -7.07748639032064
S         -14.64630739719587  -13.62482047500301   -7.05820316606244
C         -15.51307732208285  -12.27924797953012   -7.66716675874330
C         -14.67836520098514  -11.22161311868211   -7.87700988763396
C         -13.33060666612009  -11.49691772948042   -7.54601496041154
O         -12.35258877238140  -10.55146760032838   -7.68149933446652
C         -12.68384511097236   -9.31986685065387   -8.13027704514117
O         -11.84374495673133   -8.47579089393013   -8.23130639134278
C         -14.14887289754076   -9.02874924036880   -8.50797821338162
O         -14.47218744625878   -7.95860768008015   -8.92863884202080
O         -15.07102368511005  -10.00547312065079   -8.35759177288894
H           0.76200033727410   -2.07392003175797   -5.55372982617405
H          -6.70961767957285   -3.81072515241653   -7.64733828663535
H          -7.22971803722340   -3.76653783274669   -5.03988256086884
H          -3.76373722711085   -0.82561542498322   -3.67492926229693
H          -4.57261315081477   -0.28481286905842   -1.20642862879796
H          -7.02342594935493   -4.58225363240805   -1.41236138282506
H          -5.25228090721466   -5.18767468420867   -3.85293662929574
H          -8.89531014394344   -7.75818036343496   -1.18064975305421
H          -8.51851479513016   -6.05420114594043   -1.51050359404969
H          -6.92948309912412   -8.01187787280450    0.23612990566800
H          -7.81268316930927   -6.58295777033143    0.78596891228510
H          -6.34166956371955   -6.39859225997328   -0.16926346446065
H          -3.63856074217929  -10.30329278155898   -6.65738846837173
H          -3.66513240242009   -8.59619760440242   -7.12332048254171
H          -5.96699071119312  -10.54208577258108   -7.70693852441784
H          -4.72342593703191  -10.05832339831143   -8.86775506341030
H          -5.84681228375918   -8.86061726050472   -8.22369859786638
H          -7.18469795319111  -11.36579568978356   -4.52461566391313
H          -4.52633447416165  -12.01252035348012   -5.90698963567096
H          -4.18248263584103  -14.60808791278364   -5.06147100593131
H          -8.43073972950963  -15.83031218521951   -5.94745673441885
H         -10.50812270588101  -11.88376152154320   -7.05027216741410
H         -12.04862518123680  -14.44074314896591   -6.27516917123009
H         -16.56813697816454  -12.32658525636207   -7.83804205700483
