82
 SCF done       -168.405828577045          0.000850905130
C          -2.28380220386840   -1.09073588672885   -3.54584429227476
C          -2.17576867616545   -0.94604100590766   -2.16579891453212
C          -1.73470544411486   -2.02802801026713   -1.31558280259350
N          -1.56333283422259   -1.81768264136911   -0.00184963432347
C          -1.87156829727044   -0.65456364967780    0.50197849228409
C          -2.40016114669391    0.39902030521851   -0.33011354393354
N          -2.51209311368952    0.24358970880442   -1.61928863652629
C          -2.77868314240284    1.63327694489305    0.25967204542982
N          -3.07560936798385    2.61187054433440    0.77415865327172
C          -1.66093153425980   -0.41285714148619    1.88348650163130
N          -1.50956601996141   -0.16676982080665    2.99163696683171
C          -1.44688273010143   -3.30190071140557   -1.85479635584287
C          -1.54023105601443   -3.42859198500220   -3.25049378940920
C          -1.95466274927402   -2.32384118780002   -4.09048451046313
N          -1.98037218278007   -2.67667033756464   -5.38433046353187
S          -1.53705029273974   -4.20313783116569   -5.51728172893264
N          -1.28757375841798   -4.52628494386337   -3.96902463477161
C          -1.09393775294858   -4.41565345457717   -1.03362769532395
S          -0.49027690752379   -5.92518950260938   -1.70423120303080
C          -0.41180718034908   -6.47403095017110   -0.03965431376788
N          -0.82345733820244   -5.56270598968975    0.81009155388617
N          -1.19226871996022   -4.44841484151157    0.26708762176350
C           0.04245053015316   -7.76819968203394    0.32291248639939
C           0.07123387520267   -8.16969484426027    1.61964802519427
C           0.51985888587039   -9.45165348235686    2.01958215709784
N           0.55245367441179   -9.87361852916177    3.32801725159736
C           0.20349286361912   -9.09487949615393    4.49249532236220
C           1.31087636518447   -8.11603186544823    4.87371200910144
C           1.03310946561758  -11.18769263445606    3.44664298811104
O           1.14292083113638  -11.77120953241647    4.50683372115169
C           1.30914482616749  -11.59229743991930    2.08455647552181
C           0.98367252951062  -10.50789537535594    1.23449104664276
C           1.26269713473636  -10.91137213691774   -0.12721412435541
O           1.14793417778411  -10.33094863161238   -1.18827724397272
N           1.75136989845706  -12.22319389218570   -0.00755408976880
C           2.10542238724437  -13.00036397493648   -1.17122852195330
C           1.00546965452432  -13.98858975011740   -1.55002189035686
C           1.78066393041600  -12.64589827355272    1.30057826950481
C           2.23411416671748  -13.92553965731815    1.70368231531529
C           2.22881739342599  -14.33154040471155    2.99906881108150
C           2.68859286815965  -15.61832698334091    3.37828176097401
S           2.66839444408530  -16.17384299149560    5.04561275242428
C           3.35894548019076  -17.66811691428955    4.41832296776816
N           3.53096095256336  -17.62889795963056    3.12293446000376
N           3.16740386816672  -16.52098156444938    2.55927676458299
C           3.67592866013326  -18.76441323265441    5.26290929333179
C           4.24569492492534  -19.89773881141272    4.78977476977861
C           4.59111664648690  -21.03443848150292    5.58095734580681
C           5.23010939053143  -22.14085864464104    4.96546966070841
C           5.61080403373222  -23.31572358609407    5.71211435892629
N           6.22881716922761  -24.34490879391219    5.08965216659520
C           6.46921494176443  -24.25237684397088    3.81219984190632
C           6.08259250960883  -23.08278159733998    3.06434666461499
N           5.48549818079327  -22.07698175227990    3.64782778865798
C           6.35333752991205  -23.02051176541761    1.67441934272449
N           6.58941555456259  -23.01110979337946    0.55367260330397
C           7.12307057518375  -25.32179610386865    3.14573806389053
N           7.64898872874485  -26.16229996091774    2.57310880146203
C           5.36063384936969  -23.42215958026975    7.07538184138023
C           4.73166227372784  -22.35220851848239    7.69731975775610
C           4.34718048548374  -21.15985432519637    6.96530540508448
N           3.76108150158538  -20.26779402408926    7.77071160078497
S           3.70268310212726  -20.85776104903739    9.25924339237239
N           4.40555694390038  -22.26419655850620    8.99461370263382
H          -2.62322017600557   -0.27072217966446   -4.15541212063651
H           0.36856815971624   -8.42426078860123   -0.47196115801745
H          -0.26807883624739   -7.47684193432387    2.37557846246266
H           0.05403612287832   -9.81429264407754    5.30242374042292
H          -0.73589478344756   -8.56662877176831    4.31029853957294
H           2.22902580649947   -8.65778561830357    5.08762617484339
H           1.01967689597714   -7.56171891055522    5.76129553649977
H           1.50244973175360   -7.41033229818342    4.06885248639630
H           3.04932814058556  -13.52083587159182   -0.98958204551578
H           2.24822002048260  -12.28076929577427   -1.98216781379183
H           0.82123852933122  -14.69530221603624   -0.74418833055979
H           1.29925058480293  -14.54081125570401   -2.43812125038613
H           0.08240899901936  -13.45446848001800   -1.76206028696447
H           2.60143636230140  -14.60983448976119    0.95311506525945
H           1.86886421998745  -13.68089436479446    3.78391593329904
H           3.44681627969673  -18.65999758639754    6.31297541245051
H           4.47393484797962  -19.97089537042561    3.73571606532419
H           5.65028433844935  -24.30514609656078    7.61863615726061
