88
 SCF done       -176.380614827962          0.000613298846
C           1.52109994224137   -1.06768810318635   -4.12068973768188
C           1.17944879480771   -0.67901822162267   -2.83017995197726
C           0.99299798503619   -1.63480875403650   -1.75898841889427
N           0.67084400202468   -1.19536848796873   -0.53336428854857
C           0.52757397139171    0.08977578827863   -0.32380026951009
C           0.70830520962041    1.03715244921488   -1.38984959710909
N           1.02320545881949    0.64220310282870   -2.59174616163479
C           0.54332819280053    2.42269694340194   -1.12834412200817
N           0.40289164218927    3.53028267472198   -0.87503444137183
C           0.19024586745856    0.53973611202723    0.97652538977318
N          -0.07900380271000    0.93103987225481    2.01890718121070
C           1.15316616255130   -3.02600383185658   -1.98429376609138
C           1.50445915473593   -3.39349246304077   -3.29920872598202
C           1.68506192413373   -2.42531648224138   -4.35755483912029
N           2.01390620152844   -3.01857702105612   -5.51378238864263
S           2.08575056497954   -4.59805531692821   -5.29030643910741
N           1.70928021965447   -4.63933275309757   -3.73102674593318
C           0.99033611170587   -4.03011530782820   -0.98487467357841
S           1.27790160323253   -5.70474818489846   -1.36958088089571
C           0.90780324000632   -6.20352320311295    0.25131700290787
C           0.56781034659438   -5.09188218602059    1.04129012845364
C           0.61843691816571   -3.88408742100879    0.34052688655531
C           0.21465572548282   -5.13523106983390    2.40068388207336
N          -0.07664033524865   -5.13602578983259    3.51111066874374
C           0.99598344211796   -7.57202431932965    0.58387766561492
C           0.72847942927880   -8.09440086345733    1.81483839104932
C           0.86150426710442   -9.46697481022821    2.11187504493083
N           0.60816162896931   -9.99782324354662    3.35528021953013
C           0.21818308659477   -9.27140179919813    4.54175169693899
C           1.40469805835887   -8.56970929367851    5.19634935647525
C           0.83288862281732  -11.38052786992685    3.39359454629269
O           0.67684204766198  -12.06286591944153    4.38748448840739
C           1.24874777474172  -11.71563625393946    2.04738898456120
C           1.25355807445040  -10.52540109539205    1.28528939142071
C           1.66402860630710  -10.85953600017949   -0.06034342047486
O           1.81255431610674  -10.18426112809442   -1.06021887149885
N           1.87862598772077  -12.24787781405197   -0.02392542372193
C           2.35445472866414  -12.95896845585989   -1.18550372961263
C           3.85857306941898  -13.21341220000991   -1.11986340882691
C           1.64499936636461  -12.77499352048867    1.22601473068655
C           1.79416544705823  -14.14248912279715    1.55125740230796
C           1.56878012729078  -14.60778750560061    2.81086882664008
C           1.70746322997847  -15.95246159674858    3.22623646583290
S           1.38411279819226  -16.34663693501302    4.89442284206365
C           1.75202889588491  -18.02048452355408    4.63311366396061
C           2.10781291481621  -18.23851334549580    3.29365135153519
C           2.08132553955243  -17.07926535269755    2.51301428107082
C           2.45837816568848  -19.50709743790052    2.79941903454740
N           2.74545645766074  -20.53765586413148    2.38615877149091
C           1.69403810709434  -19.00089242792546    5.64746064314821
C           1.35072897906906  -18.72688120156899    6.93284150779330
C           1.27753979141808  -19.67607613911038    7.98871714629038
C           0.90494689688093  -19.24163015633721    9.28814348959883
C           0.80994048568228  -20.15660472953188   10.39986487011628
N           0.44983316071233  -19.70215556279966   11.62147358620428
C           0.19538134776138  -18.43170945452171   11.76863037050296
C           0.29258606884204  -17.51825531618591   10.66023820905205
N           0.63796066687872  -17.93869010057724    9.46942355535797
C           0.01281041756910  -16.14285156921655   10.85422350781956
N          -0.21949224694580  -15.03770362248263   11.04639214410510
C          -0.18436784548896  -17.93853944651036   13.04456897408451
N          -0.49381285134523  -17.50090278847166   14.05622857346126
C           1.08171272886889  -21.51190410293868   10.24963741159974
C           1.45008352365855  -21.95806753101168    8.98689927567273
C           1.55046545988551  -21.05498803570559    7.85650720820576
N           1.91870485041473  -21.70399741657345    6.74864821997891
S           2.11468707834219  -23.25832882244747    7.08712925358182
N           1.75107588129917  -23.21762311269191    8.64090358051383
H           1.65156710257534   -0.33138555280242   -4.89466173367988
H           0.39389440933154   -2.93071646021570    0.78247601311773
H           1.30998418412528   -8.23390430402064   -0.21353010304127
H           0.40509727731588   -7.44388625531943    2.61215377523761
H          -0.19157256778947  -10.01633458320058    5.22933926169327
H          -0.56531204079145   -8.55201658223588    4.29082651016362
H           2.16407839946383   -9.29814470158666    5.47056445259976
H           1.07279240565814   -8.05677410238753    6.09402520981994
H           1.84706443108020   -7.83826472244930    4.52402284377728
H           2.12894661738095  -12.32032781426943   -2.04414275445275
H           1.80316554160467  -13.89752415154457   -1.29115639773914
H           4.39157232625491  -12.26753567563270   -1.06436628577117
H           4.18209016703783  -13.74251942357741   -2.01190520864285
H           4.11746068022464  -13.80712067302585   -0.24581698838207
H           2.09867403980761  -14.81986574730468    0.76710602103645
H           1.26146581517537  -13.90786531358432    3.57729778244438
H           2.32803710493615  -17.07197428911764    1.46648392861920
H           1.94163076957385  -20.01440985084877    5.36023061558784
H           1.10572122755187  -17.71041339702354    7.21459557817238
H           1.00613842488030  -22.18166093762871   11.08894795950545
