91
 SCF done       -186.726203073510          0.000833575137
C           1.81379292136462    0.15431501904226   -2.20877865946285
C           2.63527377296771    0.19229836511451   -3.30704399978748
N           2.79225177631030   -0.80615194464241   -4.18606587136731
C           2.14801954906697   -1.93310442367860   -4.03576732808807
C           1.25551392122800   -2.11122152695177   -2.94295914659544
C           1.09333990964706   -1.03367179560561   -2.00829105121315
N           0.23147515515914   -1.34920146093739   -1.03803312288533
S          -0.29609758722507   -2.84224874368735   -1.27971719127663
N           0.52394341466816   -3.17971007571877   -2.62228208489503
C           2.31894366239245   -3.04104357815280   -4.95798858595169
C           3.46288221942733   -3.73656986664312   -5.25773116367696
N           4.76566734187996   -3.48330729208207   -4.76989597123413
O           5.69140578852237   -3.98369107036019   -5.38000377894334
O           4.87891901444750   -2.81641489835935   -3.75962387770119
C           3.13127050403555   -4.86656676022461   -6.10193804903021
C           1.78743329499284   -4.91061780603791   -6.24420416417598
C           1.21301790665663   -3.77144794794221   -5.56017996503367
C          -0.10313959822607   -3.36031276061640   -5.55299223684884
C          -0.57044094966185   -2.01187379015429   -5.50911546972892
C          -1.90157008551065   -2.00036647770221   -5.80776225171291
C          -2.35605227497470   -3.34845755645750   -5.96454091386227
N          -3.70759493109102   -3.68861631283011   -6.14351266844116
O          -4.03323219652490   -4.85946178740786   -6.03281072976705
O          -4.48377577130191   -2.78087087157313   -6.39020602661572
C          -1.28074118239474   -4.21801831677779   -5.78327985816637
C          -1.30549684254770   -5.61645113280864   -5.66473300802968
C          -0.41494824275646   -6.30908898476358   -4.88407523732240
C          -0.41530723539028   -7.70787765270046   -4.78010863197272
N           0.31146070681120   -8.41423504432373   -3.84698990844395
C           1.12975102130341   -7.84916158922472   -2.79937414480552
C           0.28879563675678   -7.25189265719967   -1.67439391530701
C           0.11936694719752   -9.79368777612908   -3.96538567053731
O           0.64743587590802  -10.62107839016869   -3.24528261275749
C          -0.78634293204942   -9.93779664494406   -5.08864817823413
C          -1.09294424307036   -8.65288203585648   -5.56590782053673
C          -1.95352788404887   -8.79448051889304   -6.72604946059213
O          -2.43011527954002   -7.98568967786150   -7.48848920492853
N          -2.12992614233823  -10.18748345672916   -6.85445834037535
C          -2.98847764930038  -10.73757203776630   -7.87591048857487
C          -4.35451946327367  -11.12667224127389   -7.31716755433739
C          -1.44478867585304  -10.88565911302242   -5.89413262664231
C          -1.41605345214783  -12.28735643443558   -5.79219509065787
C          -0.69363021791265  -12.91946073756782   -4.81742986172334
C          -0.59746815882701  -14.30654512905380   -4.65619822168041
S          -1.43508409768786  -15.44059080695322   -5.67196978431791
C          -0.80664895084408  -16.81360381281020   -4.83893442423859
C           0.05508309224922  -16.41677501635186   -3.80374864148268
C           0.16932037118303  -14.99510776358910   -3.69651138594578
C           0.99975186077715  -14.42117326701540   -2.71638606410122
C           1.71174307930780  -15.24034128624476   -1.88285025631207
C           2.61193554090487  -14.67036603232271   -0.81997614318632
F           2.59092224670303  -13.33342340185554   -0.78440355003478
F           2.26814758137060  -15.08827763459870    0.41016723170719
F           3.89526449748657  -15.02596993967950   -1.00198241344674
C           1.63403360758754  -16.65578352393894   -2.00609695228518
C           2.39219498161010  -17.50070637204417   -1.15951523400066
N           2.99090413125087  -18.21737713756314   -0.49666772756550
C           0.82124622086227  -17.23291854413881   -2.95480365604907
C          -1.19433233569815  -18.12199216384412   -5.29021880450664
C          -1.50270279588329  -18.34743809490629   -6.63015870562723
N          -1.90451426253105  -19.50096781679129   -7.15694573410302
C          -2.04508947015779  -20.55950597296254   -6.40490504900821
C          -1.77494631564980  -20.49971881420257   -5.02645027234300
C          -1.34242858264298  -19.25412276653884   -4.44834985548480
N          -1.18548213535351  -19.35453041643771   -3.12771911503131
S          -1.52908601313048  -20.85674984908185   -2.67376333823254
N          -1.89936305108949  -21.45978074812258   -4.10736496324538
H           1.71558851385630    0.98378763337914   -1.52943054022657
H           3.21879620342047    1.07339930944064   -3.53379815388656
H           3.86731214709536   -5.53015920468489   -6.51348348439807
H           1.22396098882763   -5.59796242158348   -6.84440837520104
H           0.06041470179137   -1.15237342170176   -5.38778534667621
H          -2.54162040548633   -1.14360748012667   -5.90695027056357
H          -2.12582931105640   -6.14062115469022   -6.14150582485662
H           0.28151920393768   -5.75512500104653   -4.27006397020004
H           1.79547899248428   -7.09382859178737   -3.22677584179776
H           1.73395845821913   -8.67360202487754   -2.41095621867798
H          -0.34082927861942   -6.44495200045872   -2.04223678158564
H           0.94317257559234   -6.85869746934229   -0.90184636710733
H          -0.34551317802885   -8.01797796402998   -1.23513536276815
H          -2.49720374850395  -11.59559907507642   -8.34308044374579
H          -3.11032147848567   -9.94941610379330   -8.62394139677527
H          -4.26087319505301  -11.88911454115990   -6.54687423474706
H          -4.98118507971724  -11.51136375235414   -8.11661510397600
H          -4.83978743532100  -10.25486954518046   -6.88570934027135
H          -1.97217751258813  -12.87369821484456   -6.51056876785038
H          -0.14182998451793  -12.31522103114887   -4.10942147254770
H           1.07754713883135  -13.34843350966633   -2.62710117930037
H           0.77026684347475  -18.30515145444007   -3.03443546202279
H          -1.40607159406520  -17.53777666570814   -7.34219547652615
H          -2.38591211134681  -21.46996019824666   -6.87405160171405
