66
 SCF done       -127.908365845876          0.000611570685
C           0.11706521413272    1.02505811994039    1.12287984887820
C          -1.13959506211965    0.42338107836423    0.59298014125854
N          -2.27900142546404    1.07020138939075    0.49237497433301
S          -3.39995985365166    0.08482969469851   -0.14912915522212
N          -2.43613639718558   -1.20985800333780   -0.32139428241644
C          -1.23504313490828   -0.91020831841154    0.11476749699703
C          -0.08701185442631   -1.87590702239452    0.13530826627232
C           1.18531829043507   -1.08107674455516    0.11633190322475
C           1.27711238560351    0.25315773081022    0.59317940170508
N           2.49549447382130    0.73471494630388    0.49045547735747
S           3.46732851135171   -0.39779892622811   -0.15102934748548
N           2.33222073746536   -1.54547746066328   -0.32131547463808
C          -0.14457670080491   -2.63786297973661    1.36972380637451
C          -0.19450412599668   -3.20582806337652    2.43655838508570
C          -0.26223643349992   -3.89183779356840    3.59588436047887
C          -0.33657199379906   -4.50402046198114    4.64413259983831
C          -0.42973560661027   -5.24832608296388    5.81038085457942
N          -0.61645733729860   -4.68506164198101    7.05290346093813
C          -0.77435810016926   -3.27704917812299    7.31424094086751
C          -2.16584486009210   -2.78320311954152    6.92669659056401
C          -0.69394758676373   -5.66250522101544    8.05750761123188
O          -0.85508463212359   -5.40043630897018    9.23646013615813
C          -0.52902859841789   -6.91160305693165    7.35377308106063
C          -0.36426296712467   -6.62057216689376    5.96875679939301
C          -0.20067618442548   -7.86792303092159    5.25790755820907
O          -0.03375796742176   -8.13221173386310    4.08743434322013
N          -0.28703768758636   -8.84667905054597    6.27162392348255
C          -0.11368329666327  -10.24497961818428    5.96619084096801
C           1.29298328346788  -10.73120698017738    6.30824676199060
C          -0.47910312376397   -8.29158717162778    7.51689044723801
C          -0.62011229857834   -9.05828927378077    8.70399633389613
C          -0.80542276052870   -8.49198422378296    9.92216059709944
C          -0.96150291836919   -9.24438054780816   11.07663042233082
C          -1.10232289036646   -9.91227259492876   12.08426877970169
C          -1.26760194385599  -10.64716146636854   13.20382464446362
C          -1.40224624532146  -11.35460584793576   14.17588821673190
C          -1.60530119251075  -12.11211645218880   15.39867446915044
C          -3.04168030528028  -11.97163676266993   15.80813458943325
N          -4.00716118438422  -12.74410674549191   15.36777735604491
S          -5.41347226534898  -12.25235651226872   16.01478322158449
N          -4.80120512044170  -11.02731223465135   16.88789764046958
C          -3.50275316199902  -10.96449715709246   16.69694029740480
C          -2.60986786680021   -9.96898268102943   17.35525509413706
C          -1.22051321687656  -10.50865462949589   17.36923086852484
C          -0.75599188440576  -11.51445167953971   16.48081819094298
N           0.49636843042159  -11.84441817334038   16.69427964399993
S           1.07356572332862  -10.95733224182006   17.92625829398711
N          -0.29188038337215  -10.12730041245292   18.21696745339191
H           0.11351070383382    0.97734855728750    2.21807543811774
H           0.19122071200430    2.07789706779485    0.84680929751788
H          -0.13438965275407   -2.56544175016532   -0.71398005262926
H          -0.00811120682437   -2.72304210508518    6.76226666083658
H          -0.61524066039331   -3.14383030014966    8.38792753476146
H          -2.33936815004735   -2.92764779935330    5.86215608531789
H          -2.25895244545758   -1.72532412235043    7.15599314982749
H          -2.92430337037465   -3.32862127677987    7.48334290758002
H          -0.28155375791013  -10.33944425463393    4.88938647176984
H          -0.86913884464942  -10.83497649690903    6.49331948749582
H           2.02757840398875  -10.16308260669111    5.74271972200800
H           1.39280269741348  -11.78203465669155    6.05066291073880
H           1.50209462474913  -10.60872618565793    7.36895294751376
H          -0.58642649625140  -10.13581436817626    8.62099343688200
H          -0.84387690067084   -7.41393223499066   10.03051339428524
H          -1.34441681424421  -13.16126443023396   15.22486107058416
H          -2.95239215687582   -9.74691752571697   18.36735893069573
H          -2.63200316680353   -9.02816869833657   16.79225274146265
