120
 SCF done       -273.660732167008          0.000462565749
C           0.16042195653210    1.16494501190500   -8.50896889278443
C           0.20607182186595    1.93379141305199   -7.37213604373197
C          -0.86420595404063    1.94535716809297   -6.37570236916971
O          -1.88907128568749    1.30965808162463   -6.47403075980027
C          -0.55210053065517    2.81240776794010   -5.21386603114742
C           0.58732213454381    3.66177955056917   -5.17484788993273
C           0.61192738531405    4.41525825525762   -4.02356195452366
S          -0.70221868365027    4.08095157360989   -2.96827296133152
C          -1.32704637632474    2.93950592315285   -4.08646268221133
C          -2.59434504211758    2.20838260057037   -3.75989130686046
F          -2.43922501461057    0.88291451349861   -3.76905592725878
F          -3.02027635562452    2.53281959572015   -2.52571499238214
F          -3.59345273820953    2.51089655791576   -4.59182382433860
C           1.60134236186961    5.45728751337272   -3.61124511874338
F           2.83878629034631    4.96829519654428   -3.44414806601688
F           1.69263724974405    6.47151415189456   -4.47368670301611
F           1.25966661523850    5.99983276356306   -2.43080807329882
C           1.61477118807202    3.70288028081361   -6.24841465430176
O           2.48667786428765    4.54761553901321   -6.26853494251249
C           1.42291089427082    2.66573477099106   -7.26146398670615
C           2.29221012242096    2.38641418458225   -8.31791357000737
S           1.54766095575041    1.32498883076784   -9.47680400484016
C           3.66641334091419    2.75183603235909   -8.43863612007028
C           4.38110531550366    3.15734039352461   -9.55669935696018
N           3.93869662289206    3.22748173677088  -10.88356694565424
O           2.91805724515558    2.61814203506312  -11.18625338851209
O           4.59732926609735    3.87724090789719  -11.67167721077840
C           5.69425158004747    3.58513442365114   -9.15387823996454
C           5.79647303872660    3.45935296853856   -7.80514325658715
C           4.57441906868030    2.91745374160858   -7.29724748541044
C           4.30660670139127    2.49347833261588   -6.00506494669612
C           3.44959864661640    1.42054540751838   -5.63429367585649
C           3.40989373069305    1.34259430129740   -4.27094772888634
C           4.21894608328446    2.37587952956020   -3.71740318156758
N           4.24366631388159    2.55525832316483   -2.32323576508067
O           3.27869812897590    2.13574464974055   -1.70583643151467
O           5.20256379968632    3.09277732907750   -1.79330191046084
C           4.80708498144709    3.11518626504239   -4.76273520114077
C           5.44389377582625    4.36407502577668   -4.79369030639255
C           5.86269265441546    5.10394228134075   -3.71082176161645
C           6.41584482049545    6.38168236571455   -3.83526395124536
N           6.77143117482075    7.15730400674685   -2.76303524856515
C           6.64089839957813    6.80780793633683   -1.36564924377088
C           7.75073406028936    5.86900866294850   -0.90268285040889
C           7.31242669368903    8.39657957457407   -3.15253916045486
O           7.68811578057689    9.25035031965389   -2.38666316236732
C           7.27529224451200    8.34938026100157   -4.60788498422069
C           6.72406057801544    7.13107949398556   -4.99956924926270
C           6.70513227423729    7.11036173579066   -6.45074346680257
O           6.34537087771247    6.27052109511572   -7.24633983996035
N           7.24281358566367    8.35703693190665   -6.83567689364541
C           7.39711841362939    8.64624383482187   -8.24245461322124
C           8.83180577741587    8.42358758533503   -8.71470033327787
C           7.60404775349417    9.11443805559585   -5.74798630218135
C           8.18718492236365   10.38812429426642   -5.65409560085093
C           8.56006375993610   11.25174145530049   -6.65104174820609
C           9.16130693716876   12.50609255431891   -6.42784307946966
C           9.52279310567096   13.12140361510483   -5.23521193615279
C          10.11493639093119   14.37657898824316   -5.51928145814447
C          10.09851381436493   14.51929887618303   -6.98845096737730
C           9.53366803140868   13.40182218242801   -7.51270858013837
C          10.57758924634525   15.59961736874572   -7.73847042369966
N          10.95993581619469   16.46650691841745   -8.38800905897064
C          10.62146577532120   15.29717287410188   -4.62148502208121
C          11.20244770654326   16.55925818836834   -4.90985091419070
C          11.57832712798463   17.17173552094953   -3.72875211245020
C          11.23303306662448   16.27303393081545   -2.63230248392722
C          10.66441851100140   15.15562696470751   -3.15175407046494
C          10.21589003553049   14.06075905747213   -2.40249472159275
N           9.86324512587177   13.17489390050146   -1.76293036427524
C          12.18830169074501   18.44239451776238   -3.61503705201746
C          12.53536606349166   19.02291480399118   -2.43537406574009
C          13.14165910692358   20.29403106888059   -2.31924575917270
C          13.50664359936829   20.94682586609049   -1.14219370521810
C          13.31917841393985   20.40609881724174    0.19840493794176
O          12.82550057329073   19.32474008259351    0.45015441041639
C          13.79676105119383   21.31897993874697    1.26662539608445
C          14.37896711982743   22.59246521225708    1.01595419577318
C          14.73147784937229   23.23015391605766    2.18149634139854
S          14.36956804322766   22.31138185109995    3.58631672664188
C          13.73355780788034   21.04664749864265    2.61284867023321
C          13.19277287226973   19.81801192347234    3.27980563792778
F          11.89640277912902   19.62146408950279    3.02852409868593
F          13.85102984361356   18.70948443242364    2.93270183830142
F          13.30664880899244   19.92137968271565    4.61650990713135
C          15.36705154228542   24.57922332166435    2.33143257103023
F          14.60777980045310   25.56259453052218    1.84305469778700
F          15.56575881628732   24.86414213859109    3.63120680849036
F          16.56323494739764   24.65295427500515    1.74363675080118
C          14.56806022384679   23.13624692975441   -0.34962275982153
O          15.05985884016568   24.21844835653229   -0.57502013065108
C          14.09222485035316   22.22159257686522   -1.39140461757088
C          14.16490220780460   22.51389610021278   -2.72827062911415
S          13.53577947757004   21.27528778349707   -3.71262213532941
H          -0.65981221775622    0.54130013902270   -8.80826791752681
H           6.44167847516564    3.92827639957565   -9.84263270290070
H           6.68117063536657    3.62237611995820   -7.22335858634819
H           2.99987126722542    0.72611483423448   -6.31718267042535
H           2.87468301899009    0.62598979908211   -3.67588668967516
H           5.56668544203581    4.79908782558392   -5.77556429680044
H           5.76342949674364    4.69995183709692   -2.71564268064440
H           5.66069837760488    6.35750143342421   -1.19382752250079
H           6.70294772585616    7.75024532629106   -0.81472971397472
H           7.68907851321449    4.90837320951315   -1.40718528409845
H           7.65509992030993    5.70107559553947    0.16584340030262
H           8.72402318071940    6.31257921594429   -1.09888685422687
H           7.05376297477228    9.66247417477818   -8.44777906473942
H           6.73494238405506    7.94822822926303   -8.76366264564353
H           9.53579563803093    9.03190137647645   -8.15102706044245
H           8.91446170838408    8.67403205879002   -9.76855392769131
H           9.10262747218684    7.37861640702542   -8.58637014457350
H           8.35320899981145   10.69549948896934   -4.62925167539458
H           8.40691305868903   10.99529454534341   -7.68829738257003
H           9.38609183194246   12.72376553527190   -4.24922191307082
H           9.37766021137413   13.19645821467600   -8.55612584210275
H          11.32463539017207   16.97134070497437   -5.89227469963120
H          11.40468910269697   16.46701490568101   -1.59052143705338
H          12.37953823559521   18.96905426510400   -4.54311697454124
H          12.35196187098964   18.51815327478000   -1.49729029350290
H          14.56543399653662   23.41067189596019   -3.16012803816008
