117
 SCF done       -262.380056268331          0.000401100484
C           0.30974887176039   -1.60737965244337   -1.85975209904656
C           1.60001968995405   -1.49059573792173   -2.30445548384944
C           2.17313043656103   -2.30652798545033   -3.38146303839169
O           1.60327138414535   -3.23495971431854   -3.90483719195285
C           3.52511207972903   -1.84227869750268   -3.78274247679343
C           4.26910145123655   -0.88952004597731   -3.03333075619230
C           5.49626092900054   -0.64149637234557   -3.59493450068869
S           5.76299190299878   -1.53323774611691   -5.04004274400508
C           4.22112033647085   -2.27463617030957   -4.88603313474837
C           3.77500702079733   -3.26593268980371   -5.91782493450015
F           2.62150492499430   -2.92138327596592   -6.49560033224562
F           4.68156385951043   -3.35950710378240   -6.90728960570968
F           3.63221740783754   -4.49723002766790   -5.42238461173159
C           6.57241833653407    0.26610828211686   -3.08631928858860
F           6.15765858664460    1.51382978548692   -2.85668304803098
F           7.12821176332952   -0.18378874743360   -1.95695350303568
F           7.57175068342991    0.36465651605984   -3.98240350791957
C           3.75625825001520   -0.25698551622441   -1.79577413173656
O           4.47269664239050    0.27757884647948   -0.98058518688282
C           2.30941660573434   -0.44947249549342   -1.64001726625964
C           1.51401819884715    0.23397080000353   -0.74201242553959
S          -0.08283938481796   -0.44874120027299   -0.67039602386195
C           1.86999167625801    1.44631876881751   -0.07450157902432
S           1.35303054135952    1.88471620277731    1.52964585505253
C           2.64207027992641    2.45160700611988   -0.60276744516914
C           3.29322203507877    2.73590525617811   -1.89414433093982
O           3.32274500566109    2.07952770355539   -2.90853650620647
N           3.87133345700417    3.98046517998085   -1.72590481392624
C           4.62826555075815    4.64849440527701   -2.76389556579356
C           3.70934213612321    5.40152217480352   -3.71921880004445
C           3.65012304671691    4.54071939490982   -0.47385047716565
O           4.06962435776713    5.61946286062857   -0.12703704617823
C           2.83214465142813    3.55489516234190    0.25441897673585
C           2.20088530820286    3.42052777800865    1.47943326866333
C           2.13328438243742    4.27331658863592    2.60777394644310
C           2.76075234669794    5.47850325563888    2.67207894994764
C           2.66204557576368    6.32469746345815    3.80074651118430
N           3.27689852807723    7.54755359184225    3.88870976321462
C           4.17433564349371    8.13069081613223    2.91897695524668
C           5.56707385398980    7.51109810710588    2.99312506287345
C           2.99284047199150    8.19587812498342    5.10840353488995
O           3.41876211127143    9.28901921649026    5.41080266589320
C           2.12409669654495    7.26752312541899    5.80258479693607
C           1.94105975067531    6.13606801424818    4.98684367275261
C           1.07540323935332    5.22264855581182    5.70087466671709
O           0.63773273658688    4.12756468347627    5.40872559368104
N           0.79925082624927    5.86855852756448    6.92129714475213
C          -0.09778111594900    5.24287466113416    7.86460046229269
C          -1.49324058551972    5.86026527896694    7.82155609866963
C           1.41130704669451    7.10063926256180    6.99614365293119
C           1.40298605124865    8.08151368975011    8.01010800488071
C           0.81291493354215    8.06591292327070    9.24010382893160
C           0.87133971533628    9.13782110639709   10.15822054288653
C           0.29888372932775    9.13531713875275   11.41807563322246
C           0.53754754982120   10.38217006574541   12.04963052807359
C           1.31110252884365   11.18481700106964   11.08006097101180
C           1.50885202208676   10.43487760539795    9.96591956864025
C           1.77385357844993   12.49379503520068   11.25829000525513
N           2.16271194477343   13.56831545974210   11.37532964444010
C           0.13799975817909   10.77954331584190   13.30864406131499
C           0.35207845405486   12.03792207119643   13.93483699299481
C          -0.20711814348920   12.02192866721784   15.19758852977335
C          -0.80329284469771   10.70902069971283   15.40354173457490
C          -0.60796418850211    9.96319482090162   14.28465131244259
C          -1.04322068965263    8.64451079249276   14.11221476446149
N          -1.41386473408430    7.56379282892240   13.99053718963410
C          -0.20109166105259   13.09788306241872   16.11830249852660
C          -0.74196179765150   13.04629777516269   17.36324921412460
C          -0.73986153442241   14.12372207310424   18.27851579653931
C          -1.25711820498886   14.12984177607103   19.57318086682322
C          -1.89672454525762   12.99062229716520   20.21496283329353
O          -2.06745114139069   11.90275959228755   19.69967490341977
C          -2.34032931230687   13.27702248285799   21.60291840572527
C          -2.17493811976991   14.53752657744227   22.24111895033847
C          -2.67445232825639   14.53061885107264   23.52151171013994
S          -3.34492797446345   13.01542046896923   23.97304857060723
C          -2.95788828041359   12.36806527129669   22.42877851996434
C          -3.30614841647349   10.94105347607175   22.13280990831196
F          -4.16765929240251   10.81635579728715   21.12045883836714
F          -2.23528189473169   10.19348575454926   21.85494403482293
F          -3.89575636605204   10.37082131645449   23.20031789156994
C          -2.68668964782822   15.65965195764414   24.50648939850255
F          -1.46027990901141   16.08390568805338   24.81993074840532
F          -3.38781277963478   16.71138373019600   24.07683348435776
F          -3.25839126453874   15.27133105413564   25.66146879342138
C          -1.53370415688695   15.69737083167923   21.57730186674391
O          -1.39458316735570   16.77596006600693   22.10879913478724
C          -1.08867114675491   15.39192332313677   20.21608324348140
C          -0.45786062667817   16.30804897921883   19.41699703255848
S          -0.05195471172493   15.68286225945497   17.88508226060477
H          -0.41984871971315   -2.31792209668147   -2.19672604600773
H           5.19422595928250    3.88351141280637   -3.29873259456383
H           5.31392889516733    5.33845549023659   -2.26739272844491
H           3.02034363289435    4.71099425353578   -4.19975365751346
H           4.30172717176754    5.89319923293197   -4.48523667795197
H           3.13852870288869    6.15527803995882   -3.18130762265239
H           1.54492133040246    3.92146494783172    3.44571551011274
H           3.34984617535250    5.81838430734210    1.83308374006300
H           4.23027471463547    9.19527212949511    3.16221238312678
H           3.75812464229174    8.01395680272657    1.91552786740420
H           5.98205480283772    7.63803344199684    3.99023740702946
H           6.22084476759120    8.00164036416418    2.27814997039990
H           5.53266676786735    6.45002812268409    2.75877032563793
H           0.33230778430848    5.28675449184844    8.86782523850477
H          -0.15808718535600    4.19302240379572    7.56178368520063
H          -1.46096975036905    6.92765815823090    8.02807213233114
H          -2.12982902314580    5.37982912629449    8.55917905245109
H          -1.93090275450035    5.71335907033057    6.83715021954003
H           1.97011197648924    8.95867506897458    7.72554930586665
H           0.25613720113168    7.20752581972087    9.58337096913663
H          -0.24458921211656    8.32059085515312   11.85470868978488
H           2.04130001334201   10.74459737086861    9.08636992646502
H           0.86653112589003   12.86628490160557   13.48846455125574
H          -1.31289062490073   10.38919212661190   16.29276813954837
H           0.27467590987037   14.01262853700347   15.78320756707158
H          -1.21292875528226   12.14295309316226   17.72402583024584
H          -0.22079646538985   17.32122262624306   19.67814487588798
