112
 SCF done       -258.702676716791          0.000876455494
C           6.37774836319981   -2.43563879619408   -0.59915650062485
C           7.40467349054990   -1.52950920863425   -0.58546424716921
C           8.77603344823555   -1.85629649194887   -0.20188746835429
O           9.15037284145558   -2.95880493992833    0.12650860790557
C           9.68093687236487   -0.67761611912024   -0.26323544940185
C           9.22907550399406    0.63101537042169   -0.58982847358229
C          10.25676809992554    1.54439931453907   -0.56485391003446
S          11.77151562041755    0.84307096301563   -0.15544731566490
C          11.02937116726527   -0.69927423608740   -0.00389792535050
C          11.87204360904103   -1.87923511399785    0.37790779645007
F          11.85802644169240   -2.84174726309272   -0.54538648040383
F          13.15846421903925   -1.50875850558901    0.52066339747617
F          11.50581696468421   -2.41733828634578    1.54246470211213
C          10.17795338749524    3.01201730641255   -0.83808180557420
F           9.67196310514028    3.29707899783502   -2.04478153287349
F           9.43408175463994    3.66635397072918    0.06431518284940
F          11.39354392555173    3.57933380533472   -0.79719040489451
C           7.81791958496902    0.95014464443097   -0.91281344983728
O           7.43303385772794    2.09779940787533   -1.05757316054323
C           6.97476849029353   -0.22710879421863   -0.98582650799048
C           5.62693046722111   -0.20009305423960   -1.31045894311574
S           4.89185111266393   -1.74837785548445   -1.07814547967058
C           4.91614891354844    0.92995909476570   -1.83791217542557
C           3.80708648668101    1.57753067903971   -1.31771513061909
N           3.09072932383209    1.21237456091738   -0.16777651505440
O           3.40206722129134    0.17177991579637    0.39519616655527
O           2.20304702119714    1.95475998897653    0.20867568457744
C           3.53656249288859    2.75644927773101   -2.09445979333007
C           4.48090956175274    2.85130792191286   -3.06296720522180
C           5.37150933396407    1.72257927105324   -2.96229907981556
C           6.35725392508063    1.36065359268434   -3.87277800366109
C           6.74389772426692    0.05186797753775   -4.24171242665611
C           7.48028206547039    0.11540941742761   -5.40284557952027
C           7.64337952152968    1.47070329318312   -5.78071841445480
N           8.39863779705555    1.88319700780534   -6.88583037073925
O           8.49507299697111    3.08087888577707   -7.11386538798097
O           8.91541099664439    1.01487255234483   -7.56930122341536
C           7.02027787254828    2.28658927166562   -4.81514568073410
C           7.16021366111685    3.65647300869316   -4.63901466780435
C           7.00627853569276    4.27709951309483   -3.40858381773920
C           7.07142507858207    5.64050894708624   -3.19243121966984
S           7.09317244205607    6.81288704896911   -4.47529856279925
C           7.15193860645519    8.15660536937018   -3.37621077757177
C           7.11910502924795    7.70934834358800   -2.02590003976118
C           7.07815986092772    6.29293695781184   -1.92391917073232
C           7.04658768435331    5.66743885378236   -0.67809822714148
C           7.04132357707885    6.43001582985341    0.47456555158051
C           7.00656208435164    5.77384611128939    1.81423946074677
C           7.02644568949578    7.82992310151707    0.36808714838712
C           7.05576438643334    8.46752873038544   -0.84832086531302
C           7.17572207435083    9.44062144078044   -3.93313780863167
C           7.53416757685018   10.61380980393388   -3.31808361288262
C           7.39299998922126   11.88020262080244   -3.91472678391791
C           6.72266880176779   12.21487827634122   -5.08510356702112
C           6.73696841320414   13.61906638027259   -5.24850453534842
C           7.50516159038656   14.15855980890577   -4.10883679757111
C           7.88114365557659   13.11682662994408   -3.32309475607691
C           7.80365433433054   15.50298625445444   -3.86010126288813
N           8.06415856919929   16.59709461961701   -3.62607508237739
C           6.09680369855973   14.35494061406715   -6.22856369995296
C           6.01992784173582   15.76596813020314   -6.34737110218003
C           5.19454009216773   16.09165758093296   -7.40839972557322
C           4.74165099415035   14.84751795668090   -8.01807724654020
C           5.27833479615795   13.80761764567964   -7.32909481378206
C           5.07830219958536   12.45478727701610   -7.62596541451251
N           4.90376767462233   11.34845829423617   -7.88267677319874
C           4.83209274945147   17.40082078280502   -7.80280454918959
C           3.92621275350692   17.68348742303280   -8.77639416234200
C           3.53466049521198   18.98974663477043   -9.14707768752218
C           2.56338444322741   19.34290948751567  -10.08334154507883
C           1.77194180616340   18.39390082799436  -10.85549578619880
O           1.87511926699749   17.18470983062983  -10.79016523104120
C           0.79300727818813   19.05013347875362  -11.75793560725513
C           0.64973478376398   20.46045279588460  -11.87652075800484
C          -0.32887587550690   20.79947514612524  -12.78023964260526
S          -1.08636247451447   19.43392851916258  -13.49447181274961
C          -0.08517749096690   18.38095368966020  -12.57728920460187
C          -0.24954740016099   16.89989914077478  -12.73813798319465
F           0.85246785252918   16.30361018909054  -13.19880704427599
F          -0.60043326419131   16.29240698087351  -11.60185244363878
F          -1.22396526626363   16.62974096874772  -13.62602512344264
C          -0.77444118471349   22.17497297707536  -13.17469561762559
F          -1.26393145158462   22.87116861977796  -12.14588723454124
F           0.20316872064188   22.89442463239602  -13.72969118608776
F          -1.75982431472790   22.10695466971581  -14.08833545173286
C           1.46948117376366   21.42075013878690  -11.10051117963631
O           1.36189789362752   22.62195143296208  -11.19883911907406
C           2.41616338060878   20.75554843182969  -10.20130507585912
C           3.26208857964995   21.44304356019789   -9.37124235405488
S           4.24549819440815   20.41869656722625   -8.43133356944475
H           6.44500214728744   -3.47289485560814   -0.33347285208508
H           2.71224644667213    3.41602199494345   -1.90499488109182
H           4.51918362851461    3.58087056902579   -3.84785929395892
H           6.41273241681310   -0.85016072574921   -3.76420295087364
H           7.87754822960013   -0.71230333487620   -5.96066272062531
H           7.51397242872910    4.23428616014542   -5.48499765941029
H           6.89766532626558    3.65195952861074   -2.53377950226941
H           7.02905296372812    4.59153886374071   -0.61092213185831
H           7.49892498383540    6.38875621164340    2.56343342142574
H           7.48787735101418    4.80052243103579    1.77273524439597
H           5.97199530430618    5.62704714257037    2.12618268005254
H           6.98318066960543    8.41920111487375    1.27216963267541
H           7.00494734323117    9.54248123364271   -0.88813372351479
H           6.91431875448617    9.48897285296236   -4.98284272742723
H           7.97588935459684   10.59139588887949   -2.33229744911597
H           6.23175602444496   11.53282569552191   -5.74933789219545
H           8.45157126663383   13.17652810030416   -2.41421519750594
H           6.50782491331641   16.46581107109764   -5.69741653415944
H           4.09718854232303   14.77165424549885   -8.87330142206159
H           5.30184596417880   18.21414789681491   -7.26149218471425
H           3.43067764381945   16.88891006216713   -9.31622913965051
H           3.33563312342733   22.50975795666555   -9.28314067119206
