93
 SCF done       -187.755343265746          0.000848762648
C           0.82690180534053   -0.64451383357139   -1.43961780327385
C           1.09151099324040   -1.00832485675810   -0.15517143556065
C           0.67572800154132    0.00119994895458    0.78336252279008
C           0.85324762371483    0.06043576711171    2.16296767304275
C           0.38063958301377    1.16458705997172    2.85836811750450
C          -0.26055805659716    2.22454757037965    2.19645038909320
C          -0.40937723662091    2.19542015766629    0.82906660486943
C           0.06667065758215    1.09299419496356    0.13155582640206
S           0.03345616353396    0.87270360565573   -1.59321557606586
C           0.55822336066777    1.23321282225503    4.26022131222015
N           0.70550343830701    1.29889295907929    5.39498309371467
C           1.71974988398128   -2.27496742938900    0.18960960355562
C           1.29181462054173   -3.08635139358566    1.22232445141947
F           0.20710689130505   -2.74493495548993    1.93822827163311
C           1.91424402145969   -4.30296530262100    1.54853994552761
F           1.39371627754519   -4.98772325632086    2.57237493235264
C           3.00950651876921   -4.82057569367375    0.86373874247491
C           3.45627018610753   -4.02350272672401   -0.22955769536848
C           2.81260730073701   -2.77684256120210   -0.55827309113239
N           3.37701282518728   -2.18273404303500   -1.60827520653875
S           4.58746747611139   -3.09234586124180   -2.13565233449331
N           4.46184503142609   -4.28489723214130   -1.06179680704066
C           3.59077505432008   -6.06589795124524    1.26549530169557
C           4.63022205624449   -6.66409278076606    0.63281217875852
C           5.17441819811061   -7.90264822817970    1.05674724169378
N           6.19223765533997   -8.54749391232440    0.39249424641807
C           6.82140097159375   -8.12522958148046   -0.83536493216053
C           5.94095566623263   -8.40121074202742   -2.05163708815456
C           6.54447414099109   -9.75886273665424    1.01259808458962
O           7.39570563756951  -10.51121231555531    0.58530223430127
C           5.67827665148313   -9.82993803251411    2.17103901829996
C           4.84271135156609   -8.68559118602393    2.16162382958949
C           3.96129485644916   -8.76915088962031    3.30637346102673
O           3.08003799503099   -8.04051711125532    3.71258126753073
N           4.32525365079037   -9.97331789109391    3.93505783713640
C           3.67530572939195  -10.41209545184992    5.14574991909689
C           4.52433670051863  -10.12411443013448    6.38172238311853
C           5.34925348406892  -10.60890688587213    3.27685371886601
C           5.90565847253956  -11.84498896151027    3.70104944625521
C           6.98196748614109  -12.40223043328687    3.10281791586954
C           7.54572698873314  -13.66781132246733    3.48010390000737
C           8.93785787212140  -13.90312745000564    3.45047715647941
C           9.91165487992189  -12.83987839757790    3.13288133689170
O           9.71256665475182  -11.67617517233581    2.96457304633898
S          11.56274455194494  -13.55294988368358    3.10341481828807
C          10.98593504162918  -15.15023258981030    3.66735111957487
O          11.73430140511034  -16.05708009330966    3.88951483194507
C           9.51244311250924  -15.12529734354089    3.78883806772917
C           8.74973072536755  -16.23074722514864    4.23000780577845
C           7.35949003264083  -16.01809350480319    4.18721532097385
C           6.78554781087497  -14.79783352247048    3.83629782976376
C           5.31712497639401  -15.00240805370135    3.78801010402528
O           4.42671935580077  -14.24482344780909    3.55224503589187
O           5.08332225104530  -16.32510488807079    4.06984137855579
C           6.25334226438158  -17.00007604882270    4.31563274654212
O           6.26751568223037  -18.17035350378860    4.53998287692303
C           9.36720871709572  -17.45108484793690    4.67280807153120
C           8.88855885254083  -18.21898302499600    5.67160044134727
C           9.51429585639805  -19.41143592886317    6.14574511759127
C          10.67768885342664  -20.01137513851665    5.74843763860517
C          10.96700875849607  -21.19953183470954    6.46392146421264
C          12.05710228899711  -22.06091629054124    6.32736851845040
C          12.13829722096211  -23.17813461865611    7.14283321574233
C          11.14364394204723  -23.45513759095638    8.10000838712113
C          10.06442436181335  -22.61531525741060    8.24675485514426
C           9.97802750261965  -21.49226110437032    7.43248226742371
S           8.72484816684161  -20.29880387869141    7.43814933957652
C          13.23702285897404  -24.06043678164965    7.01815799212659
N          14.12580065027678  -24.77748929167920    6.92098033840911
H           1.03869020124227   -1.21407530445789   -2.32282260590854
H           1.35676279351379   -0.73052450457227    2.69618484389459
H          -0.62098858470432    3.06462139755627    2.77024069967517
H          -0.87887819190031    3.01114349948771    0.30232876531883
H           3.14482285984311   -6.53884275773003    2.13141845087385
H           5.06514618797876   -6.18460077576018   -0.23089489250431
H           7.74671315328480   -8.70302096906455   -0.91272514969736
H           7.07106667092748   -7.06264715547893   -0.77133565162447
H           5.72099059281348   -9.46395053776927   -2.11720506788889
H           6.45970144533593   -8.09735627351888   -2.95658436403457
H           5.00277060885003   -7.85516986384360   -1.98527624550716
H           3.44274868544594  -11.47772627329679    5.06717401299449
H           2.73932608911572   -9.84899702155536    5.20610224652997
H           5.48389843217203  -10.63316085772838    6.32623049644862
H           4.00105671440638  -10.45898168413975    7.27326052396857
H           4.70569473998947   -9.05545470778963    6.46576598272852
H           5.44903452154238  -12.32363685223696    4.55363025942083
H           7.48986249784649  -11.86079150577503    2.31419182250576
H          10.31263886695907  -17.69795639161737    4.21478876486229
H           7.98604530383160  -17.93407554881609    6.19287447532244
H          11.31876882894858  -19.62099497373489    4.97926729402260
H          12.82459262499481  -21.85638881524986    5.59622482598165
H          11.23998862253405  -24.33529856258803    8.71729137213815
H           9.29745157372532  -22.81897094286737    8.97722651651999
