97
 SCF done       -181.845051023651          0.000722819169
N           4.90376503803650    0.53075968973997   -4.58886497730429
C           3.55421095423864    0.70234614004133   -4.28414814789358
O           2.88351501846322    1.63628721942971   -4.63689196172281
C           3.18393856204217   -0.47463308949975   -3.47959355843195
C           4.26250126380890   -1.27863987511824   -3.34015305536499
C           5.41387080525032   -0.63196045871640   -4.06425118019409
O           6.54277076788517   -1.03072837027488   -4.17142972865759
C           4.44770360006355   -2.51894559136237   -2.66526000806609
C           3.45872023371609   -3.19086717861482   -2.03207134318563
C           3.63994871329144   -4.42330166654488   -1.34836308012765
S           5.16822594002268   -5.24513650699163   -1.33690868397085
C           4.54325713632563   -6.53475719618230   -0.35793090510327
C           3.18935971749697   -6.34572587729991   -0.09909472629405
C           2.68908259784006   -5.15019099419379   -0.63665953773478
C           1.28156471722854   -4.67719327696917   -0.40925393890412
N           1.35328917229728   -3.35256564356027    0.28911011504817
O           0.98444405571281   -2.38715589102753   -0.33013436552146
O           1.78338293818533   -3.34915248245284    1.41289719884628
C           0.49156832744120   -5.63565559513895    0.48328506690843
C           0.82876339315916   -7.08073156041050    0.14866766949011
C           2.28748716326085   -7.36402342144276    0.52728799482583
N           2.58762111212963   -8.72283298437081   -0.00630801225213
O           2.80774337883883   -8.81948649157261   -1.18450601514432
O           2.53215532514842   -9.63690276349962    0.77976893975157
C           5.46065023993145   -7.54479293202135    0.04234973596628
C           5.36329961602192   -8.35383618834534    1.12919660831204
C           6.37514793795436   -9.29286861974027    1.45443214142869
N           6.36706662301556  -10.06803785111330    2.58755156146632
C           5.35581870667089  -10.11448796285553    3.61694856441555
C           4.20311678624010  -11.04146255015212    3.24189955393470
C           7.49401824900271  -10.90716456684880    2.66040806567756
O           7.70135873865230  -11.66984788112981    3.58162760207933
C           8.24683330745933  -10.60086706814539    1.46381341063499
C           7.54119382775712   -9.60528327634438    0.75022259666555
C           8.30276535175455   -9.28685188096767   -0.43865857859542
O           8.11267617651583   -8.49087187957647   -1.33775624719231
N           9.41903103556596  -10.13290963562827   -0.37423938241198
C          10.44916402884455  -10.08308443781522   -1.38372596081733
C          11.65894539836590   -9.27298676370046   -0.92425365681815
C           9.41111706772044  -10.91858922875115    0.75747896841591
C          10.42206984032609  -11.85075783909471    1.07401856807995
C          10.41054431376324  -12.59212486728461    2.21914680656608
C          11.41105843164017  -13.52142369833938    2.58582906131278
C          11.42935015341601  -14.25788459515217    3.75392337566042
C          12.59464822837846  -15.07688421595751    3.78112877139244
C          13.31624059808335  -14.79343934012593    2.52445905278012
C          12.60587504587322  -13.87087812210300    1.82689441472154
C          14.53296789711209  -15.33750328848285    2.09503800197266
N          15.53253626655139  -15.73669611448878    1.69379551176335
C          12.98987006580090  -15.94954740506852    4.76523118330249
C          14.16234076439710  -16.77061758199167    4.77963369127703
C          14.18852682033036  -17.46233151467231    5.95714269846323
C          13.02022341335087  -17.11224565913977    6.74492573908034
C          12.29078496874114  -16.20776443210775    6.03824332278275
C          11.08971844124942  -15.64029518890521    6.47510920918419
N          10.10529747031469  -15.19525639458991    6.86611303038378
N          15.15110614273177  -18.37319990084791    6.37009431618262
C          15.34778799405087  -18.80498657676097    7.69681384529880
O          14.71275532514858  -18.44328400764308    8.65104469700573
C          16.47395403777716  -19.74792224936995    7.64404832335337
C          16.91797836381649  -19.86906689711557    6.37851596960046
C          16.06538798486370  -18.98804574737114    5.50999940331259
O          16.10972477014714  -18.83274277586921    4.32100021868818
C          18.00480348214219  -20.68329331329885    5.90345231534338
C          18.40365411136974  -20.74209844996737    4.63301739870415
H           5.43845422365869    1.18603091100357   -5.13866187117493
H           2.19436440722855   -0.60473619565540   -3.08419590586656
H           5.45573007163194   -2.91375918552300   -2.68290442786424
H           2.46338447152474   -2.77023109765607   -2.04199159544968
H           0.77240210378031   -4.49660956819047   -1.36168459656539
H          -0.57745785009515   -5.46216750496583    0.35562616340256
H           0.75252259901209   -5.43676414366233    1.52614800918449
H           0.69819478607477   -7.25447157612997   -0.92246972713231
H           0.16873563605718   -7.75581707206489    0.69507112600125
H           2.39056283750235   -7.41140106641583    1.61668892180742
H           6.35383878199711   -7.61235025839699   -0.56668014122719
H           4.53001430325819   -8.28111396873354    1.81134664787893
H           4.99849394907310   -9.10240441947798    3.82403085955549
H           5.85508618502243  -10.49968972648843    4.51089243299557
H           3.70273572091968  -10.70802526096837    2.33623884094822
H           3.47872941629416  -11.06924835332988    4.05100247002836
H           4.57969906423270  -12.04816414441990    3.08051860399399
H           9.99561948712469   -9.60037547960195   -2.25385469518894
H          10.74063327439410  -11.10046262203715   -1.65932104975517
H          11.35832626902715   -8.25191629323987   -0.70311086321436
H          12.40733801250819   -9.25132418063425   -1.71155843858222
H          12.10299957265795   -9.70349280044478   -0.02931231788888
H          11.23315168602444  -11.96227743990305    0.36934273317791
H           9.59361496035959  -12.47076514720484    2.91849866240012
H          10.68252635603537  -14.22226273825156    4.52260553003038
H          12.88151392569348  -13.46506843033418    0.87122951949470
H          14.88292550577418  -16.82489182049557    3.98958660110378
H          12.79109029665911  -17.50657289718391    7.71579360847402
H          16.84768045424946  -20.23217314075722    8.52699481298754
H          18.50322482340289  -21.26628555159181    6.66826548903189
H          17.91997918053009  -20.16745511644361    3.86206392176963
H          19.22724753359935  -21.36875694599885    4.33652300734433
