88
 SCF done       -175.203467819591          0.000789404617
C           0.44728074402739    1.28087633501020   -1.52245289126254
C          -0.81579151951948    0.67377167782920   -1.66194922737245
N          -2.02664995262342    1.16453526253581   -1.85447504690105
O          -2.84801399154333    0.12518957504958   -1.89546222697034
N          -2.23329815241914   -1.04348764111409   -1.73705556367010
C          -0.95261682571011   -0.75865442259002   -1.59035886467145
C           0.17452636514714   -1.58541029101115   -1.37000889585185
C           1.38036975414798   -0.95429822337948   -1.23407247196675
C           1.51004608903120    0.45416791285160   -1.31007792677876
C          -0.02429027228228   -3.03666078614068   -1.36282394059568
C           0.21261006186532   -3.87593005282032   -0.26995576621795
C           0.71984046332370   -3.36555111223043    1.02318913779896
O           0.91736571946851   -2.23174904447546    1.34032861369896
S           1.00100846813749   -4.74941131576336    2.12111984038187
C           0.38984923779110   -5.95363777035772    0.93019821515195
O           0.38446559132794   -7.12306745095169    1.17256562295655
C          -0.03688237400687   -5.25363791027252   -0.29852490156157
C          -0.56501207221322   -5.89841894390089   -1.43954304804312
C          -0.78212719109015   -5.04120159200331   -2.53151382526760
C          -0.52693736133535   -3.67963884417851   -2.49405703767684
C          -0.85001892324948   -3.12627966291213   -3.83450577529635
O          -0.71102263555819   -2.02245656772242   -4.25788399771791
O          -1.33777975442348   -4.16377824230230   -4.58493057464221
C          -1.35120160803672   -5.34248366694401   -3.86841541304128
O          -1.78311838430192   -6.35844057965602   -4.31059435174144
C          -0.84036933790156   -7.30334439175834   -1.58444450117688
C          -1.44037882985419   -8.09211202775182   -0.66853710936288
C          -1.66161652247011   -9.47778956277798   -0.90177323953588
N          -2.38526129921736  -10.29033772606316   -0.06299559398526
C          -3.07532014368337   -9.88999026351967    1.13906493507848
C          -4.39110010911475   -9.18121251254903    0.82745308280964
C          -2.43887232084640  -11.61408396773495   -0.52975287802782
O          -3.03284459249238  -12.50559234709825    0.04470064110362
C          -1.66002309638314  -11.59555528303378   -1.74830155734829
C          -1.20031959659923  -10.26872051018725   -1.94837003385470
C          -0.40017517423864  -10.25153647706456   -3.15386158769020
O           0.21146169588072   -9.36562209093360   -3.71442822918732
N          -0.44837821142926  -11.57808486762580   -3.61945143968061
C           0.26907758229275  -11.97308095997940   -4.80723399720647
C           1.60272198705901  -12.63649233536577   -4.47133784013479
C          -1.18361468440437  -12.39062487113758   -2.78878072003227
C          -1.38238547814569  -13.77925254992483   -3.01863867316050
C          -2.11933939481550  -14.54770849220797   -2.18318069551647
C          -2.38125896805278  -15.95472435906406   -2.33115073441978
C          -3.27870679961109  -16.56211285191596   -1.44869897642687
C          -3.60235788459313  -17.90299622166015   -1.55512330830214
N          -4.56804880502375  -18.38724506428617   -0.59559923217766
O          -4.54871849507512  -17.88077974892054    0.50411984148157
O          -5.35185811923846  -19.24805233494694   -0.94024362935664
C          -3.00004723864306  -18.73415128728750   -2.52439458464035
C          -2.08594435414420  -18.11032920836921   -3.38883299012513
C          -1.79391498570024  -16.77066952419974   -3.31074773530473
C          -3.27324911805989  -20.14934630059698   -2.61162779314931
C          -2.49368971670420  -21.05079567793409   -3.23868314179819
C          -2.76481396675706  -22.46390230870754   -3.32050993391613
C          -1.79077404310557  -23.30655395882232   -3.92490364383392
N          -0.61601728055291  -23.03202615183977   -4.45741522409162
O          -0.11779320332171  -24.19387935544630   -4.87487093976118
N          -0.92131894235493  -25.22582023277235   -4.63778856037315
C          -1.99098441803656  -24.73044980736554   -4.04156827505030
C          -3.16987905738114  -25.33062303590516   -3.56035176181993
C          -4.09217947867545  -24.50009073891265   -2.98929289688698
C          -3.89959559190481  -23.10636555710278   -2.86998314932214
H           0.54351230338676    2.35163174682890   -1.58575812689796
H           2.27203739804631   -1.54249715310181   -1.07772077932984
H           2.49850449305094    0.87254798286365   -1.19704844585876
H          -0.59254995394698   -7.71778122811315   -2.55492391407892
H          -1.79486864068142   -7.68177206795697    0.26504182051223
H          -2.41934985257708   -9.25437836706117    1.74008643727708
H          -3.27743377902946  -10.81113023962505    1.69269383546834
H          -4.22202980453943   -8.28482829329855    0.23443100712694
H          -4.88667475475358   -8.90135251095467    1.75285053671080
H          -5.04697340038330   -9.84517359620406    0.26971607611414
H           0.45027796343040  -11.05341094649129   -5.37055762583564
H          -0.35787956432551  -12.63549610003348   -5.41046385021104
H           2.23117852186960  -11.94289258403248   -3.91836463937684
H           2.11638768362872  -12.91577833046824   -5.38713701955339
H           1.45578455275754  -13.52738076747655   -3.86426313387182
H          -0.92589947564870  -14.20179725830623   -3.90142320406639
H          -2.57190449961756  -14.08036814656744   -1.31838317260607
H          -3.74741597872977  -15.97376992377531   -0.67272638591328
H          -1.61382544666259  -18.70323936851645   -4.15569605408425
H          -1.09174117802451  -16.34934864523715   -4.01298928128726
H          -4.16540752956180  -20.49175267085691   -2.11046579179313
H          -1.56564787879875  -20.75883927496045   -3.71055677070965
H          -3.31556072000495  -26.39372188874924   -3.65030577078793
H          -5.01356015734991  -24.91446696152168   -2.60812560306206
H          -4.68708378415415  -22.53194508616532   -2.40781372042470
