94
 SCF done       -176.686702383873          0.000547493682
C          -3.45899275426346    1.67011230007393   -3.91010957291478
C          -3.35645919553035    1.24067248872363   -2.61691525200068
C          -3.32963480755728   -0.12786608132935   -2.28378329371317
C          -3.39309410462439   -1.10774441657334   -3.24568618461613
C          -3.50877958061983   -0.69692323484744   -4.60599973717767
C          -3.53976401025753    0.70558042561397   -4.93484316260428
N          -3.64477487820248    0.95611910492304   -6.23578685061995
Se         -3.71938599212366   -0.55460916590583   -7.10815773799725
N          -3.60632996836331   -1.51200570799788   -5.64865258019250
C          -3.40538073189641   -2.53659799125698   -2.98566470554253
C          -4.34153581988583   -3.25067935054328   -2.27994609273775
N          -5.43395772684913   -2.76303877456553   -1.53289477366413
O          -6.31824265104845   -3.55817297814439   -1.26909518574065
O          -5.44126224753199   -1.59217442054724   -1.19645708104525
C          -4.17519639497513   -4.66751041414396   -2.55150816834397
C          -3.12903517276172   -4.82395934224887   -3.38647741508980
C          -2.53503718769604   -3.52889752925117   -3.64439690729029
C          -1.33710863912975   -3.24943227612570   -4.25595033286225
C          -0.78562517788982   -1.93295901076356   -4.47365114744025
C           0.17271513747534   -2.00402873497564   -5.42683457544534
C           0.33547629566620   -3.38070353697645   -5.80717631092976
N           1.32760613550958   -3.80708703548453   -6.70811965506075
O           1.86088652027733   -2.95112642028189   -7.39312024676857
O           1.61097080031575   -4.99391538139351   -6.74841521928081
C          -0.50459095852745   -4.18284150459561   -5.04519226089599
C          -0.49358057141974   -5.59897541187323   -5.07904663974769
C          -0.57628649148221   -6.40750486594327   -3.98352731443909
C          -0.49679987881008   -7.81266608980188   -4.08632117515335
N          -0.38699553553688   -8.66692856290512   -3.01903799367418
C          -0.27731027579163   -8.29874337960626   -1.62798784524685
C           1.12378018723587   -7.80194381320505   -1.28127071467738
C          -0.29140722002501  -10.01690489362431   -3.42566598528251
O          -0.16881983978993  -10.94273126627212   -2.65836015551005
C          -0.38915957616051   -9.95105784002949   -4.87097030357116
C          -0.51625974025965   -8.60421234013126   -5.24496221154137
C          -0.64887075306036   -8.56103917633961   -6.68690211496912
O          -0.84020935257715   -7.64656821638973   -7.45755140706354
N          -0.55056161457043   -9.90958486415635   -7.09274544362189
C          -0.61132754071902  -10.21602238214013   -8.50217304474993
C           0.78312407088126  -10.31841887805195   -9.11682118390788
C          -0.39340361615123  -10.75658625429972   -6.02175859300487
C          -0.27849413918960  -12.16216262891834   -5.97251661434512
C          -0.12235733500821  -13.04838338992225   -6.99806842152473
C          -0.04277191554062  -14.45261216202747   -6.84176516693498
C          -0.17382492938239  -15.23346391450763   -5.70677439072446
C          -0.02882259768506  -16.60317742409469   -6.06279838651211
C           0.20968491741608  -16.62714817036688   -7.51847346963569
C           0.19285332760890  -15.34538178765382   -7.96604527691775
C           0.40478397240823  -17.75129791148090   -8.32799751439163
N           0.56648129346426  -18.64831194215182   -9.02779199047909
C          -0.10232544066121  -17.70433994694541   -5.23942127965527
C           0.07568602287570  -19.06895809610866   -5.60583196227347
C          -0.07924976842482  -19.86813299549348   -4.49683214323650
C          -0.37439247018924  -18.99616580225096   -3.36396163427186
C          -0.39085376801809  -17.70823660245568   -3.79151892712868
C          -0.66489690787696  -16.59642043101062   -2.98820119474504
N          -0.90338449922038  -15.70279815052516   -2.30712081137355
C           0.01623163027899  -21.30255616544219   -4.44449867605791
C           0.12711940067831  -22.05462676261750   -5.60488423607084
C           0.21841927107676  -23.45290690777993   -5.60344621523711
C           0.20551490669015  -24.17254639803584   -4.43913554555968
C           0.09772260711706  -23.47004742002531   -3.22465259762121
C          -0.00035743636863  -22.02731812277712   -3.21196988299996
N          -0.08844786893235  -21.50925708021929   -1.99438527067820
Se         -0.05916403120132  -22.79525752245839   -0.80582269180663
N           0.07886257769632  -24.03564065058680   -2.02199034637777
H          -3.48108485330819    2.71605314935984   -4.16989337754454
H          -3.29535655828739    1.96171481194631   -1.81634851570568
H          -3.23897034557153   -0.40823240367778   -1.24687490293748
H          -4.82530623195258   -5.42034323431865   -2.14856791577828
H          -2.78501237233836   -5.74853096665535   -3.80161831208768
H          -1.09863190885646   -1.04588068997255   -3.96162231319015
H           0.76141250926607   -1.20385430195522   -5.83390907090983
H          -0.27722989016774   -6.05133392938404   -6.04080860073006
H          -0.63677554798760   -5.97058508290943   -2.99589494334317
H          -0.49629812658457   -9.20591588264722   -1.05796907966752
H          -1.03023156669891   -7.54181332400278   -1.39040805537692
H           1.85291762630979   -8.58448913997453   -1.47539591458496
H           1.16998853108831   -7.53870872957671   -0.22838252738039
H           1.38737045237368   -6.92850217522145   -1.87387066626716
H          -1.14285000258212   -9.38036284069361   -8.96797644260976
H          -1.19566642699750  -11.12620508083817   -8.65366623152864
H           1.28796323476604   -9.35911669836790   -9.03526013596321
H           0.70511353329337  -10.57989233458419  -10.16860851440713
H           1.38838085889598  -11.06670703508859   -8.60929217052311
H          -0.29863400356271  -12.54744345954722   -4.96089069049281
H          -0.02839021712581  -12.70173404325031   -8.01586227145861
H          -0.35653886409860  -14.88376086415761   -4.71001501003695
H           0.33162296346808  -15.02449924052311   -8.98265122997515
H           0.31567888608167  -19.38858372413871   -6.59954995267596
H          -0.55004146234807  -19.34423860560916   -2.36494504554697
H           0.13382041218081  -21.54782213082741   -6.55680711137077
H           0.29890534278427  -23.96531053546828   -6.55016070928542
H           0.27444806706903  -25.24801589864332   -4.42190906593522
