89
 SCF done       -177.809122196992          0.000740903277
C           1.12720257562594    1.08732066838074    0.16020423609475
C           0.60787141529480    0.63000895279681    1.36756426020925
C           0.44397388010804   -0.77616063206872    1.63396032614507
N          -0.15846489677654   -1.17453203362384    2.77715206588825
C          -0.48519916404966   -0.27227270749185    3.65070108229627
C          -0.23116650573426    1.10621774048372    3.43222792514533
N           0.26637089753760    1.53875053572253    2.31556923392553
C           0.84911258083376   -1.74396259918176    0.69501462948992
C           1.37686930194244   -1.27590541420482   -0.51539710629085
C           1.50256826728163    0.14261692584894   -0.78358766635119
N           2.03820291259008    0.36965151048264   -1.99355224803997
S           2.35508061940121   -1.03425250825252   -2.68601381700626
N           1.85668080169064   -2.01163478422521   -1.52680307757989
C           0.70622104588878   -3.15930958070065    0.97137754154018
C           0.20737035804273   -4.05155030441681    0.00703771037608
C           0.11364379624868   -5.46290343501445    0.27318956226761
N          -0.47223726713865   -6.27127038451962   -0.61847299849687
C          -0.77191510005545   -5.80443271767482   -1.80263828290248
C          -0.59895663962539   -4.41046668894609   -2.10132863532454
N          -0.19997088425681   -3.57394072872293   -1.18195025205051
C          -0.94472991663484   -3.90735747428217   -3.38045403887133
N          -1.20889783154017   -3.52443670853238   -4.42726198074520
C          -1.33022442115659   -6.68427957254109   -2.76063000164606
N          -1.75445098405706   -7.38731650606550   -3.55971292142521
C           0.57732972268116   -6.03673035268973    1.48088046194602
C           1.04492036801756   -5.13968939499617    2.45673040713163
C           1.10194169788004   -3.71407485881094    2.19831211288381
N           1.66782976391015   -3.05277369658033    3.21212407249317
S           2.06351919174485   -4.08874274125212    4.36180799356188
N           1.56856404952953   -5.44224647354176    3.64806462589875
C           0.65427250414951   -7.46654008444716    1.52890903415101
N           0.39262763394434   -8.28487984392615    2.59179211740593
C          -0.15462217563520   -7.89893009309843    3.86997982218218
C          -1.57817482819836   -7.36658320135141    3.73484358295484
C           0.51097235733694   -9.64473100258728    2.23897995041911
O           0.29078295210640  -10.55604091148437    3.01407388913389
C           0.92388343331373   -9.62700829620155    0.85592093916606
C           0.99460821230463   -8.27411404316056    0.44511120402549
C           1.48911402965482   -8.24306454425621   -0.91693372767416
O           1.76443878479057   -7.33497827901790   -1.67424339191919
N           1.62947802501596   -9.60029911566479   -1.25953289663983
C           2.11731987823485   -9.98949488787671   -2.56015178024688
C           3.60269784655426  -10.34222573214210   -2.52714473562103
C           1.30984410504854  -10.43585722504515   -0.21597715531671
C           1.37000822336695  -11.84696755425203   -0.29171339589176
C           1.01665934434798  -12.64463858237330    0.75225425030970
C           1.04940507119018  -14.05986186936022    0.73410101926949
S           0.46758160600202  -14.94995852228448    2.11563450758686
C           0.81505100027855  -16.47736818775539    1.37148184672752
C           1.36621082696548  -16.27973071560440    0.09786692785724
C           1.48937974970562  -14.92722387982384   -0.24851577982453
C           1.76134703707701  -17.28881212450694   -0.79769901950696
N           2.10679359401695  -18.04970301324204   -1.58463173641950
C           0.51268026781201  -17.66635489079586    2.08015058875580
C           0.81117933308599  -18.92032333738109    1.65894416215168
C           0.50525575984691  -20.13987472463989    2.33772752247503
C          -0.28272355169994  -20.28232513959553    3.50698792329472
C          -0.51973806268374  -21.57865215938038    4.09115597485714
N          -1.27539639879174  -21.69592512488235    5.21297079294354
C          -1.77570387903450  -20.61608234272664    5.73224282128437
C          -1.55755285649845  -19.34399867691515    5.15336587479461
N          -0.83688215029340  -19.19030515800974    4.08054617023145
C           0.00575971185701  -22.74614792917047    3.54130548742587
C           0.77382938825804  -22.63028870802263    2.39284658393891
C           1.02008700282164  -21.33661878039530    1.79419928910097
N           1.78271912000754  -21.43817656838756    0.70152954203460
S           2.14005622160194  -22.97800767241785    0.45749969091407
N           1.36930211166170  -23.61641755365570    1.70391344344767
H           1.25021432102261    2.14277784541038   -0.01476236677235
H          -0.98411386694675   -0.61578676436127    4.54707688674558
H          -0.47691492914992    1.84771253840548    4.18044725653274
H           0.49434870582511   -7.14671045931333    4.32507114288309
H          -0.14894484971957   -8.80579909880308    4.48073024874158
H          -1.59609265775801   -6.46261615115741    3.12955163574195
H          -1.97752862742531   -7.13398207929998    4.71806782761302
H          -2.21781592593713   -8.11075355988559    3.26554690319604
H           1.96008810304500   -9.12638395160005   -3.21290785248099
H           1.52304669128063  -10.82565916132509   -2.93817118477626
H           4.17915817828179   -9.48250776113568   -2.19463202396996
H           3.93732031615768  -10.62044448583528   -3.52259975184392
H           3.79433121398712  -11.16996757665264   -1.84749899475278
H           1.69591336899334  -12.28718543849544   -1.22219218147192
H           0.67967630603646  -12.18523640328164    1.67240416099901
H           1.89441229041143  -14.60704919687768   -1.19197765315696
H           0.00784226853427  -17.53932262412740    3.02680892540902
H           1.34904007972240  -19.06302144548646    0.73102556177674
H          -2.37384222343971  -20.73306106051317    6.62598513672144
H          -1.98786633949433  -18.44789304627322    5.58049609737138
H          -0.18721328808367  -23.69844367908882    4.00505366451400
