80
 SCF done       -149.896133661453          0.000473686339
C          -1.20534590555339   -0.45709763330818    2.61632918700015
C          -0.74921319140738    0.69436722071309    2.12324055022837
C           0.49618128380748    0.76015456521920    1.40729525526336
C           1.16272962370390   -0.34778888526843    1.02747487346852
C           0.60039211495332   -1.72698444090684    1.32749613146625
C          -0.40766179089518   -1.72826282233161    2.50186686647663
N          -1.34342310187775   -2.82746166938340    2.47087075015371
C          -1.59060466706634   -3.38823394257703    1.37402505437353
C          -0.92764579364095   -3.00008254937290    0.11444841754219
N           0.06310984634305   -2.22890197908711    0.08041737423865
F          -1.43070012776717   -3.46878430865386   -1.02402394816543
F          -2.48028446130918   -4.37417194311788    1.33058751435636
C           2.37856136497812   -0.30502347682651    0.26467854245151
S           3.29126992921710    1.16134727538020    0.09294114709667
C           4.51777511674106    0.34536420549594   -0.82255690309392
C           5.75039415486447    1.03212479983493   -1.11349486067109
O           5.94537375755144    2.21453448076900   -0.96046517810745
C           4.19857493323522   -0.99624063828970   -1.01626766458799
C           2.99490170776291   -1.35074920337946   -0.37986984857733
C           4.96420725450969   -2.00612009807682   -1.70683982377145
N           5.63108748806715   -1.88493686246670   -2.90119250207679
C           5.52696740782991   -0.79596971675708   -3.85133495457388
C           6.88936149638456   -0.24770770088462   -4.26497637104352
C           6.23512454016941   -3.11350752975889   -3.27684753122176
O           6.82385726518556   -3.28457653781332   -4.32412151603342
C           5.93657373392587   -4.00351607971493   -2.18394881137349
C           5.12041853855150   -3.30311535912935   -1.25547785852171
C           4.80372002365149   -4.21468559012738   -0.18046148448017
O           4.11838246639112   -4.09525485125151    0.81578432559533
N           5.47393855646081   -5.40923124233418   -0.52232814543695
C           5.33725919968247   -6.56825586945379    0.32546376350188
C           4.31206280252435   -7.55810225569730   -0.22374626144989
C           6.14770792009875   -5.29365801250920   -1.71974476860213
C           6.95839139766152   -6.22676066990865   -2.42962334717188
C           7.26823148991208   -7.51006684558596   -2.15711237748556
C           8.12372048969462   -8.33629815961699   -2.98073902617349
C           8.71209702558392   -7.90598264045137   -4.17247265052651
C           9.53000251161762   -8.76890877927154   -4.89455276946073
C           9.73261962370353  -10.05141617411415   -4.36961591323563
N           9.17295956288427  -10.47715894462466   -3.25455332341306
C           8.39240043480282   -9.65426925555741   -2.58458471642777
C          10.17011013547969   -8.35766238464424   -6.14236588612068
C          10.32962800182666   -9.19058826109396   -7.18195873199223
C          10.97689347690989   -8.77756712890357   -8.40324454988285
C          11.62050961479380   -7.61487962397386   -8.48763515017123
C          11.73896890020140   -6.69881161171849   -7.29878085260946
C          10.61104601815700   -6.90681008228707   -6.26364999718148
N          10.95661862964583   -6.41922575222678   -4.94660152523492
C          12.16691249906455   -6.41631095065801   -4.60783625187233
C          13.25460321072971   -6.78944857721271   -5.53254066837348
N          13.07347390125349   -6.90718792071096   -6.76971156316022
F          14.46443325906821   -6.99564384249853   -5.02144883814977
F          12.49857564597188   -6.01358909126878   -3.38523410681822
H          -2.13910499404794   -0.53715717131336    3.14933871692593
H          -1.30902363886115    1.60828714245284    2.24811735467844
H           0.88396682771337    1.73466180668182    1.14835443792897
H           1.43709250887816   -2.39336076082631    1.57741925922550
H           0.14533390428574   -1.84562179352962    3.44525038769171
H           6.55306356819600    0.35453648007303   -1.46138737737561
H           2.58974730665741   -2.34332543878560   -0.42231283351917
H           4.90825147308035   -0.01057130146201   -3.41276794370877
H           5.02175660671863   -1.18256781435006   -4.74464055990271
H           7.43498598373011    0.14860342794373   -3.41284917651815
H           6.74914039444188    0.55189334968945   -4.98693067301219
H           7.47881662866604   -1.03682940852521   -4.72259711217286
H           4.99114598596503   -6.19013490085007    1.29250039577766
H           6.31432109962720   -7.03653319738256    0.46646547272307
H           3.33151444207869   -7.08970309516628   -0.25890167398807
H           4.25647040736037   -8.42970390412611    0.42274417609342
H           4.57463930055572   -7.87998748192268   -1.22903107698482
H           7.36468488219524   -5.77289503089932   -3.32423180104902
H           6.88401066594204   -8.00844618680392   -1.28017515862227
H           8.52959172517215   -6.91187252916320   -4.54444124534438
H          10.39015357083523  -10.75504951848252   -4.86232776006561
H           7.95852311236609  -10.05894034299068   -1.67859123413859
H           9.95998300919648  -10.20311277447438   -7.12477047252076
H          10.93808992583666   -9.45143911240980   -9.24527709228398
H          12.16740483802807   -7.32061497095748   -9.36783476962020
H          11.72180116440684   -5.65596615241720   -7.64511360090483
H           9.73286998492125   -6.32420397258604   -6.57674771527328
