91
 SCF done       -170.651907621018          0.000817775458
C           0.47569509841049    2.96129333717710    0.28499462411303
C           0.45882465582823    1.73151182710131    0.79382672480881
C           1.59229289901476    0.84774526706651    0.66939007670380
C           2.77901032916084    1.26841551829916    0.20366305058406
C           2.97392756146894    2.72514176140714   -0.17252422454460
C           1.65656037494838    3.46407021236237   -0.50239211397079
N           1.72902953285807    4.89492503315893   -0.31706453358332
C           2.56577091502960    5.35879712853482    0.49780115061953
C           3.52974847231023    4.50758037593801    1.22283815739968
N           3.72287100572304    3.30235535426580    0.92613594941999
F           4.20311665089434    5.05077638187287    2.23116081582917
F           2.61507991675415    6.66963178253675    0.70704491268878
C           3.95781161907548    0.40310107738825    0.16727647262514
C           4.16930184443868   -0.53087381742199    1.17515231338723
C           5.27756123490519   -1.36623282814350    1.16498165764438
N           5.36221525083528   -2.33800749588509    2.22190414287636
O           4.68249480689305   -2.15390746214967    3.20989275135092
O           6.08951497597526   -3.30072284607886    2.06785506788770
C           6.24460585919932   -1.29391243435829    0.14423146208926
C           6.01047023190683   -0.35363939654907   -0.86720762183629
C           4.90483404830374    0.46526133092377   -0.86156049365330
C           7.45128312450614   -2.09185440055417    0.14810839292721
C           8.07338727600803   -2.48611996041682   -0.98087812779209
C           9.26788176490989   -3.24991817955616   -1.12955297251251
N           9.94904947969724   -4.01421623567000   -0.21588717421133
C           9.60949316782521   -4.29361756325920    1.15956181885811
C          10.23400753664652   -3.27628726812081    2.11312592851360
C          11.10450247492810   -4.60359470594607   -0.78571657575330
O          11.85549746856489   -5.32871984846232   -0.16884442765000
C          11.10086168144828   -4.14693885535189   -2.15600256915563
C           9.95726165937607   -3.33485608038149   -2.33453373927569
C           9.94709905777680   -2.87544482193918   -3.70109941433819
O           9.17165480411933   -2.17512728331600   -4.32025737580677
N          11.10452342607744   -3.44921546815597   -4.27160062987436
C          11.40235919944272   -3.19991313226362   -5.66050794179889
C          12.34645446277606   -2.01155596577695   -5.83657812331695
C          11.80800571373394   -4.20215789989486   -3.35472125608540
C          13.01633312962236   -4.92990036514916   -3.50796174407967
C          13.89916112280834   -4.94045470138081   -4.53635737470956
C          15.09254189975552   -5.70995590214784   -4.54877682761702
S          15.52119116737879   -6.82448346147448   -3.27355411012486
C          17.00427917256479   -7.25549318947220   -4.06633714724875
C          17.14638537320570   -6.55346050202124   -5.26882056314906
C          16.06161530226893   -5.69566474484162   -5.52455540577541
C          18.26636343459684   -6.66164041706598   -6.19145364814096
O          18.36076356481252   -6.04796998833361   -7.22661242084354
C          17.89450975445181   -8.20438013421142   -3.50168590697119
C          17.63904613894286   -8.90198564417455   -2.37007061017343
C          18.51104256996544   -9.86602090599957   -1.76533071649831
C          19.83160796420012   -9.98459229356187   -2.03034701419261
C          20.66081340577049  -10.96434136048595   -1.38795612917682
C          20.14496076078462  -11.91962118627147   -0.61186760579475
C          18.66051479381322  -12.05020572341505   -0.40659159378770
C          17.88813410478825  -10.73912281732298   -0.68358374732586
N          16.50035103398264  -10.95439064840728   -1.02657613916233
C          16.16366318994528  -12.04717520628229   -1.54726128560096
C          17.11050309023296  -13.16044748124238   -1.74865017535389
N          18.25302723796093  -13.17389854697387   -1.22755765048428
F          16.72672625694004  -14.17348255940212   -2.51884086235700
F          14.89826463280543  -12.23370711926075   -1.90643664805423
H          -0.35257046892696    3.64553578090467    0.37401317391511
H          -0.40837397116457    1.36500674560355    1.32110436483298
H           1.45685789936281   -0.18145087581445    0.96495494423312
H           3.64178157753106    2.79250641376007   -1.04044496973116
H           1.42023491580132    3.32033243184373   -1.56691524476438
H           3.47695982699208   -0.61565921139535    1.99886286553500
H           6.73539808945675   -0.25542333067216   -1.65995790459952
H           4.76871963593180    1.15341397976148   -1.68171246063351
H           7.83924315524916   -2.36768790260448    1.11400648854710
H           7.65776202017399   -2.20278157105474   -1.94025771915779
H          10.02245264954023   -5.28251850163715    1.38076251108770
H           8.52399030228938   -4.33378756587341    1.26810520896544
H          11.31789969853666   -3.35046975972949    2.07114265563029
H           9.90894034759292   -3.47989576132645    3.12948633886660
H           9.95005227262458   -2.25949224118112    1.84899092746134
H          10.44473516013514   -2.96370008524176   -6.13553239365476
H          11.80239788931586   -4.10828066951848   -6.11638238670247
H          11.86367589336259   -1.10704041301470   -5.47525865207230
H          12.58547475750832   -1.88088569859109   -6.88854702070908
H          13.26943876636225   -2.15264544644090   -5.27813850776620
H          13.24848500162851   -5.52993305723251   -2.63512073996568
H          13.76057686260924   -4.33018748342534   -5.41502960507372
H          16.01330155054542   -5.08550241872318   -6.40895871006978
H          19.06088677634591   -7.36601476144596   -5.88058940078080
H          18.81430089732537   -8.37310303260486   -4.04318967687154
H          16.68556715861702   -8.75969806889157   -1.87864328620077
H          20.30211921882789   -9.32198177687662   -2.73978417924762
H          21.72442262234297  -10.91711946434625   -1.56616439798482
H          20.74963637500954  -12.70097575567414   -0.18253532983843
H          18.47064279022663  -12.36706154424429    0.62867606567764
H          17.87155164550811  -10.13611649368569    0.23530621255046
