88
 SCF done       -174.485878714653          0.000586486354
C          -1.15914621366048    1.03905776055352    7.18615042460858
C          -1.57225161063613   -0.09938057892587    6.55116163307815
C          -0.84740668839828   -1.29749243685553    6.66596421151390
F          -1.34757058624113   -2.37678081947184    6.03188406185449
C           0.30633287646084   -1.43032258246411    7.41094204260434
C           0.75159614439353   -0.25418435417682    8.06100252738586
C           0.01764416285427    0.97696064923684    7.95140033762120
N           0.60221473043916    1.96193557908585    8.63612307471591
S           1.92532825006412    1.38971397343702    9.33613508613309
N           1.85046610469389   -0.12120401275186    8.80187433666852
C           1.02076619520198   -2.67950912521986    7.58675669138304
C           1.37079764614811   -3.25840641886961    8.78134791945860
N           1.07793493964536   -2.80151079265506   10.08218317418651
O           1.66507945912774   -3.33792858345743   11.00440258192042
O           0.24531072462900   -1.92228424179356   10.22015156865230
C           2.04607106452276   -4.51574917160187    8.52702373520539
C           2.04788969080461   -4.73734987519720    7.19505311655409
C           1.43999431436586   -3.60545385275935    6.53253401763217
C           1.38427462188952   -3.35970607352556    5.17858667911301
C           1.37278844093520   -2.07327835708898    4.55403170036113
C           1.56563566449346   -2.23918781015897    3.21939441784555
C           1.65096450973629   -3.63954330896021    2.91668425657406
N           1.81240324225846   -4.04825078100838    1.58421899266326
O           1.62207079280353   -3.20938556677878    0.71937275376458
O           2.15413796107237   -5.19770046958348    1.33779189725678
C           1.49999710846490   -4.37179041151509    4.10278444610017
C           1.22595445778809   -5.72292290299420    4.37950524151920
C           1.37594211868350   -6.80607228685294    3.55060012865530
C           1.04007493886541   -8.10601030840972    3.96282454864927
N           1.21121377134513   -9.22065661833264    3.17698710206175
C           1.76047622371532   -9.24908897245491    1.84057461113172
C           3.28383452877108   -9.16204966979295    1.84923051996960
C           0.82469200783465  -10.40155573431683    3.83306977125513
O           0.88651797861134  -11.50795527527841    3.34347041384601
C           0.36838155514861   -9.94452323261219    5.13242806874042
C           0.50232228297510   -8.54829193978297    5.18688968397799
C           0.04657500794783   -8.12086402359946    6.49250920821355
O          -0.01917121462489   -7.02685840875118    7.01501215789356
N          -0.33724540829363   -9.31110143723462    7.14731780105189
C          -0.88832983626042   -9.23790511246203    8.47896486554886
C          -2.41407940506600   -9.30085275579342    8.46570922626595
C          -0.15326017527381  -10.41260325065452    6.34648729661540
C          -0.36464373379374  -11.78517423868186    6.60168551554433
C          -0.89246942415354  -12.40463425968013    7.69189278895244
C          -0.99433823482910  -13.81019318364561    7.81736723332818
S          -0.40351005148415  -14.92152614331202    6.60943510803910
C          -0.88105381530214  -16.29972446852287    7.54807541647806
C          -1.48028421692179  -15.89303748885591    8.74536805789982
C          -1.53689271241870  -14.49909759887132    8.88540743788043
C          -1.99080860309100  -16.73964358830514    9.74572034485191
N          -2.42753942155036  -17.36261436870008   10.60433616791414
C          -0.61436277168800  -17.59774215697429    7.03650170877802
C          -0.91129051997354  -18.75896769202394    7.66195697342060
C          -0.62884479803439  -20.07769745739962    7.16621998031329
C           0.01583815891444  -20.36885170989378    5.97624007335420
C           0.25308981297133  -21.69207344804517    5.58258174811828
F           0.88901252720380  -21.87499628104439    4.40994280413219
C          -0.11729791779094  -22.79232225911515    6.31098214064033
C          -0.77488595215313  -22.54208763823086    7.52383794739767
C          -1.03115624387183  -21.19191287890349    7.95393774421522
N          -1.66134010640219  -21.15571936808006    9.12520288655040
S          -1.90497331179426  -22.65890714442461    9.63083898146276
N          -1.22989487092274  -23.43855985738926    8.40157923697293
H          -1.70918134388940    1.96279129429185    7.12004158364510
H          -2.47215633297787   -0.11357169475545    5.95654894414767
H           2.45037949946985   -5.13393421389337    9.30507311786842
H           2.51871254793526   -5.55647922084670    6.68947318133259
H           1.33691815921389   -1.13705106360613    5.07558064008142
H           1.65713208598500   -1.47277559874689    2.47254855819938
H           0.83499674508601   -5.90761895531328    5.37119939102634
H           1.78298731405860   -6.67585784052048    2.56025004921746
H           1.33398783585452   -8.43246031396808    1.25359888547088
H           1.44832950410402  -10.20290319521675    1.40657945749955
H           3.61706022881492   -8.21945034392511    2.27597333728275
H           3.65616032584442   -9.23035887766747    0.83140396242667
H           3.70312777753970   -9.98030238018235    2.42993966470026
H          -0.57335583449466   -8.26951114569371    8.87965137607387
H          -0.45438331322500  -10.02677061071046    9.09798503593576
H          -2.81120997740596   -8.44257233868563    7.92966881124478
H          -2.79299653628629   -9.27736374061719    9.48370233045408
H          -2.76991659924761  -10.20499967128683    7.97624609534847
H          -0.04135944287951  -12.41019397519237    5.77620370143888
H          -1.27205901698782  -11.85021511536082    8.53626194976382
H          -1.96268365384783  -14.01324582184138    9.74606257999352
H          -0.12728513184117  -17.60828466527863    6.07091326101989
H          -1.40169171117112  -18.74404333292786    8.62485706239456
H           0.35691150301284  -19.58558000681057    5.31883621165343
H           0.08359919579560  -23.79539034920042    5.97584418543801
