98
 SCF done       -182.211277881166          0.000724651278
C           6.89418392824946    4.85847033282172    0.32277190130865
C           5.53210936434139    5.44154925599200    0.23263572975150
N           7.09111843881707    3.77154463839721    0.98730359179112
N           8.29617998130099    3.26204312675182    1.19211686864899
C           9.56512240866041    4.00327100841347    0.94968428119317
C           9.31931677692088    4.87034371037414   -0.23262498527335
C           7.99939166044054    5.40071042815454   -0.42755512230340
N           8.04705099163186    6.18164094632713   -1.47697981487707
O           9.31646105228349    6.14333212932951   -1.91356724276296
N          10.08872123481503    5.34342142456052   -1.16349487639156
C           9.86992037526099    4.93753226249222    2.13591607856691
C          10.54958646272769    2.90939380866732    0.81504922652635
C          11.91251750667146    2.67681972791323    0.78570419665389
N          12.94906049094442    3.61737229656373    0.81943785322796
O          14.09356917119054    3.19961896589057    0.83014890393907
O          12.65410571382526    4.80015205092082    0.83808537469896
C          12.09592673570332    1.25918637101214    0.77492079587081
C          10.85126336854522    0.63108746615279    0.84091773523041
C           9.89980914366481    1.63630298618265    0.87847056008179
C           8.42812428748471    1.81238511090619    1.03022370846221
C           7.68693992112622    1.32416448022054   -0.19680389592263
C           6.78088984044511    0.40293903705302    0.14398843273071
C           6.82127961869829    0.20167073670362    1.57324016161358
N           5.97003503795051   -0.72469025562129    2.21384400250423
O           6.05525721459146   -0.86350964691281    3.42429511876673
O           5.18855785116997   -1.33914329184751    1.51122689587835
C           7.78442784429506    1.00302993446430    2.15197684209652
C           8.18842063735691    1.03026864715669    3.50023756842673
C           9.31787501301782    1.66701300808985    3.92135451027600
C           9.94441537148883    1.67642880753400    5.18516767725747
N           9.54751395140636    1.18242772065989    6.40503286671181
C           8.29982073263397    0.54005073860433    6.74910908275844
C           8.33482881061819   -0.95923262520490    6.46516600886451
C          10.55637157530048    1.32565642685698    7.37740573470339
O          10.43268355666146    0.95973719606340    8.52950217294593
C          11.64963753804873    1.97601052643913    6.68476587770115
C          11.22980820049647    2.19715138614465    5.36053656787850
C          12.30863046938565    2.83169888346448    4.63649431911374
O          12.39144399900204    3.21542387317663    3.49042075182851
N          13.34207567181057    2.93765675887591    5.58458606433148
C          14.60102691676089    3.55539496042358    5.23940661108671
C          14.68624221327412    4.99128258566232    5.74917166778242
C          12.97090948767282    2.43135215610542    6.80640401434857
C          13.83261819246979    2.35531155727109    7.92392739631092
C          13.43335414340850    1.80910587208886    9.10480286103186
C          14.26581031457350    1.63272893099530   10.23689408630059
S          13.63685686386909    0.80743168718930   11.63886999934686
C          15.14944984366515    0.91313276762934   12.46510375356060
C          16.08914985633362    1.58898889326097   11.68370231704839
C          15.58633495531370    1.98655512121834   10.43514362854521
C          17.40649174038935    1.89336228701627   12.07105150383650
N          18.48591512211071    2.18162750967694   12.33144287071255
C          15.27383970508851    0.32444304593693   13.76378609146497
C          16.41877286842745    0.19212865920402   14.44103772660635
C          16.55446504230522   -0.42948278562881   15.79880619111321
C          17.00001447067306    0.63862587768824   16.81621192816838
N          17.61028391406378   -1.44665157528466   15.62873372767421
N          17.64482979187773   -2.46033448100544   16.33855130150756
C          16.70282615091734   -3.02734782265895   17.05255195988322
C          15.40909920662292   -2.44277988812111   16.88228427792434
C          15.33343079719310   -1.12400549051292   16.30303200706341
N          14.09575451351246   -0.74056704512371   16.36225862577357
O          13.40372930072328   -1.75586403161699   16.92538986741227
N          14.19853111186906   -2.78926869550933   17.24336476688371
C          16.97524628005394   -4.20567250614601   17.90686880640919
H           4.80867054699431    4.75813065413056    0.66687697566220
H           5.28964560493949    5.64142318246152   -0.80906900065637
H           5.49711172522469    6.39083032478644    0.76677084441970
H           9.08685553576064    5.68600337585778    2.24119619573763
H          10.82439268297547    5.42276047251740    1.94371742578554
H           9.94416433907385    4.36386216652052    3.05450923033441
H          13.05555997966775    0.78213089217109    0.72415491397512
H          10.67305922299806   -0.42618433644047    0.86266199103427
H           7.91185895920171    1.70480700579722   -1.17476721642847
H           6.10891647856434   -0.12991375158446   -0.50242146034077
H           7.58353842198949    0.44412787345557    4.17508025843155
H           9.91288184700510    2.17953644113628    3.17593638418050
H           7.48403225773003    1.02799473195197    6.21282719136633
H           8.16147095886651    0.69878016780144    7.82279510750704
H           8.57666329904993   -1.15830027565494    5.42420545682135
H           7.36403148776822   -1.39463739098273    6.68165713327109
H           9.08269932641663   -1.43649901181401    7.09357302659339
H          14.65131878484149    3.55173145669795    4.14686940777938
H          15.42414641319266    2.95081220628561    5.62976058099627
H          13.89568729144647    5.59001328162453    5.30396577911011
H          15.64328227250068    5.42163037151873    5.46905436951658
H          14.58492168229752    5.03092629775334    6.83203073660296
H          14.84170250189323    2.72136348135729    7.80751497365176
H          12.41528151029200    1.45309915699204    9.20018181525241
H          16.18188056350757    2.51604789986516    9.71324635459005
H          14.34467508091448   -0.02312156546639   14.19662270752655
H          17.36284038907865    0.51353684029438   14.02870989525630
H          17.90833405342266    1.11622363444771   16.45920741791947
H          17.19681815990237    0.17699769374395   17.78255973401024
H          16.21526320368540    1.38247146112066   16.92632501309499
H          18.04572266747349   -4.37655133504376   17.97498330942843
H          16.49059216949193   -5.08938669645690   17.49085147094982
H          16.56011582961492   -4.04932468640025   18.90180246399651
