96
 SCF done       -195.028498964881          0.000421615047
C           0.21959525754884    0.28285073505379    6.62314994772093
N           0.08129262207833    0.16156685152103    5.33388000871563
N          -0.41455879938282   -0.89225137336614    4.75951485847379
C          -0.75880284033963   -1.98108572377460    5.41238709194886
C          -0.60090940359834   -1.99088812486095    6.82625848025709
C          -0.13430265687346   -0.79411333062615    7.46103558668684
N          -0.06725070540810   -0.92832202591773    8.78582812474275
S          -0.53515989675474   -2.41301536482530    9.17015417100810
N          -0.83104933748423   -2.96766953268508    7.69925351657740
C          -1.34357851433307   -3.12895858838579    4.75045842142784
C          -2.49680539794124   -3.75918840101949    5.17786254151733
N          -3.39524442424750   -3.30032125750604    6.15848560258138
O          -3.27478592321016   -2.15290919088625    6.56126916779295
O          -4.25189884732156   -4.07302957243131    6.54214081528215
C          -2.70810234034334   -4.95874871588783    4.40904405003159
C          -1.66780005828069   -5.09721784510643    3.55619394754609
C          -0.77187781184726   -3.97219456788067    3.71023061031431
C           0.36497045782198   -3.73442671983162    2.95546196097271
C           0.87948323403266   -2.45588505422394    2.59342008801642
C           1.76208233846844   -2.61159622429092    1.55904829120289
C           1.91600651940510   -3.99988550918147    1.28104432057665
N           2.81563459032802   -4.48857641761026    0.32009724281538
O           2.92780271230337   -5.69974049304651    0.18001166688920
O           3.43383976595452   -3.66991622681123   -0.33644885057957
C           1.11299999195390   -4.73766069190455    2.16904438131603
C           1.18515527292084   -6.11814835440535    2.37959618120827
C           0.76426881582637   -6.74691974327711    3.53054027166775
C           0.76370187976077   -8.10687012096171    3.85050858220215
N           1.17536044770704   -9.21781767903780    3.15353012786530
C           1.73749156598776   -9.29040507646527    1.82234775040502
C           0.66524297922170   -9.15537393077631    0.74510937443529
C           0.94915111235901  -10.40010146967843    3.87856255295829
O           1.23817516243970  -11.50568658027545    3.46806317480229
C           0.34621055693914   -9.96361350405778    5.12887012592521
C           0.25504193249822   -8.57580401934735    5.08226603508932
C          -0.35685908534995   -8.10333536763762    6.31401629984781
O          -0.61391603374474   -6.98806829721172    6.70597881641684
N          -0.59898985486516   -9.28138373487883    7.04140617444277
C          -1.26010410109098   -9.24719416540916    8.32691729009150
C          -2.73511247308912   -9.62027895894119    8.21595765874625
C          -0.19086427509877  -10.40429128348680    6.36670853575339
C          -0.28116471989598  -11.70220454684349    6.87801569774728
C           0.21367614883586  -12.77867552280342    6.17548711003185
C           0.22081692854218  -14.13414184502672    6.52946389518398
C          -0.51889344632854  -14.91336663478752    7.44005125093998
N          -1.38895840928368  -14.54543268580266    8.47955222694442
O          -1.40618346020131  -13.38686959589854    8.87231071237572
O          -2.08157781025869  -15.42517500273420    8.96045006650580
C          -0.30955460951426  -16.29413481602876    7.14269895544625
C           0.53883772414828  -16.40907930944811    6.07984659847062
C           0.95038913636473  -15.10297242376939    5.68524083085001
C           1.98973974047501  -14.78828894780538    4.82492928549762
C           2.87768403645033  -13.67227332960365    4.96186701519187
C           3.92253854927843  -13.82980197112044    4.10501801158414
C           3.70786266638453  -15.02107403178153    3.33601968660328
N           4.58419370498650  -15.42483192637079    2.31143642102945
O           4.28765807512782  -16.39068383440633    1.62625312647944
O           5.61130156440870  -14.78373284971386    2.17489833849826
C           2.52469625667477  -15.62955138177488    3.74450433212002
C           1.90521564055665  -16.74562458340348    3.12708711807017
C           0.57151761030787  -16.98511562122166    3.09630116101972
C          -0.00923146049261  -18.10897631828806    2.42758708699237
N          -1.33189470748632  -18.16080182669895    2.36115228642624
N          -1.98925394160873  -19.09580506496193    1.75941263857315
C          -1.41887736371161  -20.09128877451641    1.13591043015514
C          -0.01229614441811  -20.18673377348566    1.12853780556245
C           0.72944837461000  -19.16614741458926    1.81519920267082
N           2.03956458185262  -19.38689557504080    1.76054812807423
S           2.30777223785735  -20.72447353267121    0.91448099390901
N           0.78573631606122  -21.10656102022622    0.58562084788584
H           0.61401174049647    1.21288993264653    7.00000748769509
H          -3.56724330387123   -5.59092553998834    4.52085755788076
H          -1.55201385819185   -5.85797224288130    2.80950383137524
H           0.52406882627264   -1.52686467248477    2.99724164135421
H           2.27727808740487   -1.83616357594370    1.02383712330636
H           1.68879977356792   -6.67429807818803    1.60304382789093
H           0.38581070720702   -6.13406248916481    4.33905150244762
H           2.20284157029074  -10.27748377798558    1.74789834345423
H           2.51452834647603   -8.53236977086051    1.70761365136603
H          -0.03571172237257   -9.98418324632828    0.81004390005363
H           1.13372646205596   -9.16988011973310   -0.23428389221770
H           0.11295796068132   -8.22471168771309    0.85084142840091
H          -1.16516921826639   -8.21927483012895    8.68683982733546
H          -0.74586273918517   -9.91846820295235    9.01869543472933
H          -3.24450020275384   -8.94203804711013    7.53565691036761
H          -3.20125084857310   -9.54529716431260    9.19372438418733
H          -2.85300404614392  -10.63898836721629    7.85563796478176
H          -0.71928343093002  -11.84661855555509    7.85292791911005
H           0.66236582598144  -12.56994533679035    5.21269933465794
H          -0.76162293074473  -17.09106512760706    7.70284801145073
H           0.92715466985224  -17.32310285450297    5.67585179824631
H           2.79241652625820  -12.91282908972618    5.71399308121282
H           4.77989747091381  -13.19446142116486    3.99006307096226
H           2.56198061129339  -17.40282110910634    2.56774510724756
H          -0.14031708215818  -16.29576728588518    3.52764699092720
H          -2.05537685041804  -20.81284752660288    0.64984750598922
