90
 SCF done       -177.869270232657          0.000923569205
C          -0.97852944341748    1.00151836043818   -2.47446594570102
N          -1.86173963427361    0.07586402319773   -2.21400544883208
N          -1.57227210099764   -1.18408047790335   -2.14630285096806
C          -0.34883402524560   -1.66703546861812   -2.29342666258027
C           0.70725590742028   -0.75159307973686   -2.58228191830515
C           0.36631307651492    0.63924160163978   -2.69119661231868
N           1.42700633678121    1.39620292753833   -2.97202508775075
S           2.71713010269024    0.45064416936570   -3.07975720246323
N           2.00642221481025   -0.95992605134922   -2.78019891891960
C          -0.15909677783624   -3.08220234002183   -2.16917601801776
C          -1.11951910914502   -3.99734945721891   -1.80660962093841
C          -0.54118200734296   -5.30291751894405   -1.83933408236954
C           0.87013038684345   -5.11986153493821   -2.21442127975397
C           1.08766087787530   -3.79034054854125   -2.40353987219272
C           1.86300767895721   -6.10682170571376   -2.26469107644416
N           2.71702452975680   -6.87435202494199   -2.26674323443700
C          -1.17201931090841   -6.50609145775894   -1.60426268960458
C          -0.65352137453582   -7.80550821353162   -1.83040806940404
C          -1.59614284492649   -8.75094050315809   -1.44936159869199
C          -2.76109529068455   -8.02963495431675   -0.95250472037597
C          -2.53074774818105   -6.69579734689033   -1.06732656389647
C          -3.43651851084460   -5.69858499664229   -0.68426912317705
N          -4.21051716947026   -4.91852033709333   -0.35172851332168
C          -1.39823622885217  -10.14361391082803   -1.58708388774823
N          -2.11024112251327  -11.16349974780752   -1.00598375654814
C          -3.15692586875810  -11.07973990111010   -0.01267677066235
C          -2.64979083643004  -10.51947227082660    1.31193958701082
C          -1.60819424130961  -12.42664315647671   -1.37319380811394
O          -2.06419143338400  -13.47337017780352   -0.95799427240814
C          -0.52470101685620  -12.13754147897063   -2.28800734433338
C          -0.40823990071000  -10.74481611949789   -2.38901124969011
C           0.64291643093126  -10.45030010612692   -3.35500278349249
O           1.07059347145213   -9.40979607175750   -3.79783591784125
N           1.11678347750306  -11.71543256311192   -3.74160814829737
C           2.17043727489150  -11.84878020978243   -4.72209994599058
C           1.61514160680628  -12.14297242464887   -6.11251628131563
C           0.43189272186921  -12.73707145960661   -3.13840832473151
C           0.67949135336322  -14.09335699169577   -3.39109313061415
C          -0.07269885358166  -15.08744738160585   -2.81230112138012
C           0.04953572363840  -16.47680762969988   -2.97098979463334
C           1.09488359968328  -17.31192827825522   -3.40612401615107
N           2.30413278878411  -17.02554673777047   -4.06005064773267
O           2.45152836930891  -15.94658533554127   -4.61867970803539
O           3.15484244305443  -17.89868258073801   -4.06017151499307
C           0.79361142614425  -18.65885418201932   -3.03698050121181
C          -0.41092727992869  -18.69882378656549   -2.39723689857929
C          -0.95531476549570  -17.38211715841169   -2.37169629521378
C          -2.24490643313554  -17.02745974239396   -2.01412281708591
C          -3.00509290626273  -15.93600773666404   -2.54434396108387
C          -4.27441728101295  -16.02011106638204   -2.07104462432584
C          -4.37597532769892  -17.15817484040547   -1.19645509785772
N          -5.57003443486766  -17.39747397670826   -0.48994377531933
O          -5.74590946490045  -18.47649606426625    0.05025090411354
O          -6.38636651945140  -16.49145948396157   -0.47017701687431
C          -3.14478498260666  -17.80455802874007   -1.13945304160344
C          -2.64716267293405  -18.85253626347593   -0.31993275599902
C          -3.31286260096245  -19.91045288599354    0.20395572611262
C          -2.61965466032631  -20.89997963015074    0.97471456498692
N          -1.29871306877794  -20.86238824599893    1.07820587415362
N          -0.61071858228777  -21.70279286977149    1.78388104678850
C          -1.13948289173399  -22.71470524808838    2.41715240340375
C          -2.53138107688412  -22.93005738760866    2.34651252207978
C          -3.30888702973714  -21.97177248791348    1.61311842755057
N          -4.60678654947066  -22.25450819036189    1.64006793195644
S          -4.82258913289454  -23.59350359195224    2.49640996988199
N          -3.29064627563352  -23.88694765115723    2.88009822329016
H          -1.31820032307853    2.02413469505783   -2.51134607540182
H          -2.14012750133933   -3.76737962921899   -1.57313441691142
H           2.01375366282219   -3.31744231196107   -2.66970995776028
H           0.30883125377590   -8.01372067458726   -2.25417473246765
H          -3.67307895955053   -8.46318572520290   -0.59156293452339
H          -3.50259998598658  -12.10798831793146    0.13135780170726
H          -3.99270821312045  -10.49290883022104   -0.40064484737780
H          -1.85645599278394  -11.15121749576232    1.70416451992865
H          -3.46232128306866  -10.49680668261350    2.03250918711723
H          -2.26153359762949   -9.51024694837453    1.19347259225522
H           2.85972985051839  -12.63626327157007   -4.40977636262792
H           2.69882205334225  -10.89176019010594   -4.73055732977986
H           1.07877866106102  -13.08863259264918   -6.12547623538466
H           2.43337023592823  -12.20082404187347   -6.82398402118079
H           0.93933519422580  -11.34916338787221   -6.42210984700654
H           1.46610118777478  -14.34695236752445   -4.08420291741278
H          -0.86414518673609  -14.78024578696217   -2.14134797284143
H           1.43873271322727  -19.48793354747819   -3.26002204898419
H          -0.91818272081125  -19.58688771105306   -2.07550975883227
H          -2.65443014654523  -15.24273364701073   -3.28277227875615
H          -5.10257674785410  -15.37455072537004   -2.29329662835867
H          -1.58243585966098  -18.81755510618424   -0.12001326324520
H          -4.37008729403604  -20.06726793752936    0.06221440730827
H          -0.47793401147940  -23.35580577848078    2.97728226002277
