70
 SCF done       -139.563753616643          0.000550316576
C           0.87895672177586    0.87401511449462    0.05226805848907
N           1.38404538549654   -0.09109673445506    0.76965657545188
N           1.01338511564300   -1.33732038374307    0.62694073005129
C           0.10181500976170   -1.72260456343570   -0.24727531212353
C          -0.52106743894251   -0.75629563936343   -1.08682506209801
C          -0.10549286286755    0.60587547932766   -0.92285466646210
N          -0.74609171068593    1.42679010348979   -1.75480995388231
S          -1.76288171570213    0.56404153732511   -2.64584250984853
N          -1.44950685705958   -0.88962665710599   -2.02998728683806
C          -0.20529042940758   -3.11912828587228   -0.29510544629029
S           0.63272840671909   -4.20027167993409    0.76735263302675
C          -0.22872444330202   -5.56828842379501    0.12733611515475
C          -1.13523104742007   -5.16487401687404   -0.85839766149393
C          -1.11068090023542   -3.77864525233517   -1.09055329390933
C          -2.04547697087243   -5.99737128629286   -1.53332195124686
N          -2.83700496900183   -6.61173655505844   -2.09205600702605
C           0.06954524618364   -6.85699822343491    0.64273040027839
C          -0.34677601825444   -8.03040124164428    0.10213231064845
C          -0.07463502842985   -9.35055138978989    0.54608455624823
N           0.39239778952553   -9.79033710641311    1.76681094020716
C           0.68111499008402   -9.02563490467824    2.95657915049044
C           2.14852466436087   -8.60611170902518    3.02193222637328
C           0.52607996970762  -11.19066792793117    1.80041865756943
O           0.91548894224075  -11.79952046546303    2.77959864971241
C           0.10566270760498  -11.63124397886155    0.49181840003747
C          -0.26431608600815  -10.48077757380578   -0.24470657740516
C          -0.68296931052729  -10.90142622636559   -1.56403435523992
O          -1.05840929120261  -10.29076663840767   -2.53872313214070
N          -0.56571099502713  -12.30963719398888   -1.52289848091480
C          -0.86667180459266  -13.11223060491143   -2.68288094136732
C           0.39724724371873  -13.52600862967580   -3.43311901248972
C          -0.08865506582814  -12.75345891069325   -0.31389458757860
C           0.12986589726565  -14.12064171249890   -0.00549590577513
C           0.63951974754556  -14.51977889601108    1.18666948311758
C           0.87441666151541  -15.87488351624708    1.54581675915368
S           1.56861274285941  -16.22451274386895    3.10085611893402
C           1.53117682132418  -17.93010867275667    2.79915885184421
C           1.87863106579915  -18.90906705548641    3.84210852030169
O           1.46455994758047  -20.03838965499444    3.84083279736182
O           2.67106021147560  -18.46733771314108    4.83123925680722
C           1.00569248874179  -18.19945548208755    1.54502657896594
C           0.63330816956227  -17.04051130271181    0.84907719037217
C           0.88222057682034  -19.54067691539861    0.98808672569210
N          -0.21506265036430  -19.84507382122029    0.33750598366313
N          -0.43257132434222  -21.04074946439134   -0.16242730939120
C           0.40421524103322  -22.02657218202732   -0.00278543556786
C           1.63888639496036  -21.82428201289853    0.64933986482665
C           1.91399857516815  -20.50363422068413    1.12785311822747
N           3.13893340643993  -20.39334526650817    1.63843288232195
S           3.84062765887455  -21.83397297945205    1.56967568929651
N           2.66149622524272  -22.65432518781848    0.86013848168176
H           1.24509589949931    1.87145661137524    0.23805224207128
H          -1.73303950865320   -3.27724864712117   -1.81034868173747
H           0.72715938512392   -6.84358119363303    1.49805568136766
H          -0.91709818795568   -8.00949581453435   -0.81789825114024
H           0.46743109089304   -9.68526526605033    3.80371003171982
H           0.00964956249134   -8.16614788276476    3.00398880498083
H           2.77599801887248   -9.49126387750466    3.08750226560400
H           2.31877410866082   -7.99285050415545    3.90255405777085
H           2.44180915485375   -8.04422363339563    2.13770337653395
H          -1.48568493995215  -12.48400526250052   -3.32959246775083
H          -1.44757395076617  -13.98877972669045   -2.38267564214072
H           0.93655018557380  -12.64202017401035   -3.76418366830887
H           0.13043001287866  -14.11670245373078   -4.30496655420596
H           1.05527289645556  -14.11503614685646   -2.79767285140684
H          -0.12587760180362  -14.85286949666084   -0.75659626088822
H           0.89121277847093  -13.77422303884753    1.92999608009000
H           2.93935588186708  -17.54473917757321    4.72261615799326
H           0.19972048337881  -17.08070515494680   -0.13261977439866
H           0.11913762509376  -22.98596039150738   -0.40642736331687
