121
 SCF done       -285.493551680639          0.000959027184
C           2.60169966284377    0.29929485647280    0.68053379459809
C           1.52663945595789    1.20963259336314    0.28729543824308
C           0.96499215253089    1.22648808865836   -0.99003962556424
C          -0.06542723755279    2.09471738703260   -1.33090993178556
C          -0.56268517225338    2.98249131948742   -0.38047548181409
C          -0.03415085264204    2.97487900770389    0.90871850722890
C           0.98643523335725    2.08868665103885    1.22913675234959
F           1.48933751900805    2.09374163758378    2.46623578172379
F          -0.50749549643609    3.81609101853174    1.82704260849855
F          -1.54199542790928    3.82478771539125   -0.69587253328345
F          -0.58178873641560    2.06608881010627   -2.55661954518434
F           1.39129945925310    0.35789833449833   -1.91485273171733
C           3.74313277720874    0.12695394859483   -0.00849764104810
C           4.76219847286993   -0.83558793005617    0.44649741082193
C           4.40710795059092   -2.09979819254793    0.92698565091851
C           5.36455098694014   -3.02497578473019    1.32336277621276
C           6.71633754221063   -2.69565115087460    1.25881504618746
C           7.09610587878350   -1.43815896506432    0.79971400895454
C           6.12503496594869   -0.53074674143082    0.39334798648228
F           6.51754701974516    0.67488212194723   -0.02533512497545
F           8.38301480525245   -1.10227001161700    0.75609234081095
F           7.63687172906258   -3.57271985365548    1.64645572320097
F           4.99194736434589   -4.22116395517153    1.77274790656876
F           3.12124409569706   -2.44739737909650    0.99122507128332
C           4.04523061906003    0.98900211831558   -1.15824966510456
S           4.18804371948924    2.68891751915336   -0.85212316077294
C           4.42268596444556    3.02264120225140   -2.53774620752723
C           4.33791131676854    1.86055224870629   -3.28846409642493
C           4.16939192108078    0.70242852041442   -2.49816654749783
C           4.10841812625269   -0.66564478287390   -3.11736441563836
N           4.96203628028745   -1.60169055770959   -2.35318664650391
O           4.43751873314446   -2.57743791685890   -1.87539529758611
O           6.13202588124326   -1.32295076885743   -2.24390878269173
C           4.64386136698511   -0.61833519592553   -4.55176722491687
C           3.91886481120598    0.46897714687414   -5.32930955679724
C           4.28143796831135    1.85490100811825   -4.77951445676726
N           3.20524220944583    2.78472723799031   -5.28882589504580
O           2.47158638837080    3.30418114021528   -4.48780325681916
O           3.13820510450992    2.88990340540813   -6.48199049479874
C           4.67769652154725    4.31812731893859   -3.04479422669239
C           4.62778560071816    5.48092166163228   -2.34842699924967
C           4.84986119096471    6.71369554063457   -3.00965011595554
N           4.82086162753459    7.94408349838351   -2.40720582121225
C           4.68308331780491    8.20699614313643   -0.99498852093017
C           5.97546718276179    7.91751155377130   -0.23617088306981
C           5.00249919936333    8.98867486339482   -3.33410777689735
O           5.01958270780812   10.16182474371604   -3.02329032755667
C           5.14249609643802    8.31680109584399   -4.60956969902122
C           5.06371484011015    6.92698779698381   -4.37608761699763
C           5.18654946035445    6.25364278589992   -5.65176206681533
O           5.20793876267822    5.06824383996895   -5.93846418598425
N           5.29715950554934    7.28536594015895   -6.58424312275074
C           5.45827912858010    7.00822330390698   -7.99299996563481
C           6.90916847552189    7.16081329180050   -8.44027893243990
C           5.27575773891718    8.52788474352814   -5.98804119154256
C           5.33390477562072    9.74143307969473   -6.70040021429994
C           5.35327386939365   10.96024608718266   -6.08364551108323
C           5.36687125215288   12.19395987810931   -6.77129963053878
C           5.26815614809364   12.44184109716353   -8.12849397957797
C           5.26470517143010   13.84297865228968   -8.34876793229461
C           5.41992872370076   14.47122859384330   -7.01748751635487
C           5.47598260079023   13.48133436502564   -6.09239942791301
C           5.58701614015591   15.83953557675236   -6.78617570028494
N           5.75823626909294   16.96444987466959   -6.61940679665780
C           5.13025959882282   14.51286079789907   -9.54284513236859
C           4.97424100535624   15.92155273083798   -9.71938471682586
C           4.95553236984476   16.20708550205626  -11.05777730596398
C           5.07780539690831   14.95993605188575  -11.78861954046370
C           5.17132493009841   13.93730350408028  -10.89374599425005
C           5.32526188393024   12.58357712743688  -11.20626781985430
N           5.44361003095541   11.47085963499708  -11.46846186819318
C           4.82277181432713   17.51797838453320  -11.65891302149063
C           4.09865887216764   17.58112625590125  -12.94399635762517
C           4.57227761100777   18.33936684714730  -14.01581418478208
C           3.89900649001823   18.39097395470697  -15.23168208329559
C           2.71407952225223   17.67903567097624  -15.39782416214334
C           2.21722412984971   16.91975893401483  -14.34200365494242
C           2.90941165892100   16.87516741476987  -13.13691403570304
F           2.39333602394068   16.15790942242005  -12.13510143556758
F           1.07896425090949   16.24163496033453  -14.48686496702346
F           2.05992468749276   17.72645492380257  -16.55570958737536
F           4.38453035868716   19.11977053276842  -16.23639477034837
F           5.71433729645600   19.02088460868210  -13.89256182846848
C           5.26913513048189   18.65845210643269  -11.09039844514208
C           6.07866204271866   18.76894035874797   -9.88270933360644
C           7.19699855232040   17.97127577376792   -9.62412691207938
C           7.95891280765597   18.13143210639953   -8.47538911701337
C           7.62687452225875   19.11468057418920   -7.54623971147086
C           6.53307656855769   19.94025538789051   -7.78896591930806
C           5.78555887262329   19.76476987554421   -8.94655206704645
F           4.73592031629425   20.56393216951061   -9.16894272713683
F           6.21371161617767   20.90079030795498   -6.92303752226873
F           8.36217576243871   19.27575292243371   -6.45113751407175
F           9.01720921173866   17.34597418696847   -8.26445146889535
F           7.57056773257978   17.04133639290096  -10.51095318749235
H           2.44365689534975   -0.21913014018509    1.61473022812311
H           3.09009618055804   -1.06805880065734   -3.08177357054213
H           4.48882314643437   -1.58524116078999   -5.03224625510850
H           5.71598621715901   -0.40975690526858   -4.52136609847595
H           2.84091388649200    0.31144935176430   -5.23396158488492
H           4.17474368004650    0.41911220258957   -6.38719484449351
H           5.21354436712990    2.22046057506999   -5.22466939369102
H           4.93978757960988    4.36542447059621   -4.09283251497819
H           4.38437436410722    5.48219160086878   -1.29533102392776
H           3.85537254950722    7.61596910934990   -0.59317974446353
H           4.43370912676933    9.26796000421736   -0.90751069029910
H           6.26557241111044    6.87445025056214   -0.34199326968444
H           5.83868611678092    8.13757061019952    0.81870684297354
H           6.77922678403330    8.54140473824653   -0.61908133385970
H           4.80261552033340    7.66408545342969   -8.57129124393946
H           5.13349910187884    5.97389512451145   -8.13570243940855
H           7.26684772538082    8.17387111457993   -8.27045389738590
H           6.98971319171546    6.93658280630328   -9.49989139706678
H           7.54440471855307    6.47157251833028   -7.88912905182506
H           5.36044825717950    9.69199774920573   -7.77907252448823
H           5.35371510231227   11.00382899901042   -5.00243481543454
H           5.15982584461087   11.71372196105119   -8.90735588637776
H           5.59639596980013   13.59537620815628   -5.03084033652467
H           4.83670141942203   16.62204278760920   -8.92115967812822
H           5.11607787988163   14.87341981407172  -12.85921592808365
H           4.99883003121878   19.60792895574756  -11.53238347702035
