93
 SCF done       -190.866737839570          0.000430490004
C           0.34705207486147    0.88464038340348    7.54673580607103
C          -0.23977861292687   -0.20537183221325    6.96778693562066
F          -1.50468466108503   -0.12468198307711    6.52855441710720
C           0.43073001936169   -1.44033279768181    6.81361892490172
F          -0.25017257587571   -2.45760681971221    6.26100188313175
C           1.72728027095335   -1.63194445077111    7.24046827409279
C           2.36420943155075   -0.51127774204640    7.82668665693744
C           1.67257951837180    0.73948526009132    7.98569038559470
N           2.44417250596701    1.66054942328810    8.56374754632180
S           3.87849795659944    1.01299655252055    8.87007862187552
N           3.61650398031085   -0.45274672938976    8.27478046353673
C           2.41352120785707   -2.90761766403618    7.15457355263754
C           3.01483916049822   -3.58122074271288    8.19016577708228
N           3.07075221081637   -3.20145674522234    9.54672881940468
O           2.33114779928987   -2.31415281707180    9.93563581968130
O           3.85044994342909   -3.80480288831994   10.26061402942597
C           3.54420476000905   -4.83782748326707    7.70272693949173
C           3.20954354490001   -4.96352037082644    6.40019739032391
C           2.51549871738956   -3.76722469212697    5.97865042973323
C           2.14364029815741   -3.42298978006970    4.69636353866017
C           2.05910656280357   -2.09858502351669    4.16929610300611
C           1.91341439587217   -2.17925352531666    2.81954877737632
C           1.83376165255265   -3.55621027885828    2.42566580358180
N           1.65325651934933   -3.87826741201221    1.07281733977951
O           1.35320692672675   -2.96702037521392    0.31933689527520
O           1.82424520534968   -5.03016073999170    0.69337214598029
C           1.92590849324898   -4.36190313517605    3.57101924124938
C           1.63472011438545   -5.70965338337743    3.83794172711301
C           1.46798980635187   -6.73662375730364    2.94177127536103
C           1.14193150391486   -8.03718486290666    3.35620450912290
N           0.99367063339670   -9.09436451101353    2.49103490101057
C           1.16758096844875   -9.05822598830883    1.05684913084147
C           2.64117931564591   -9.09729587179060    0.66312399983321
C           0.68450379508804  -10.28930347033652    3.15580814917054
O           0.50703055702620  -11.34849930315009    2.59283392841498
C           0.63283890318885   -9.91448464994800    4.55876627314690
C           0.90919513837286   -8.53831815005090    4.65121129245243
C           0.84469252263591   -8.16247058664405    6.04961584909679
O           1.01899494702839   -7.10485554217897    6.61966524569492
N           0.52853836085925   -9.35900803515458    6.71687803546486
C           0.32354767107442   -9.37681978062460    8.14590120210053
C          -1.15989355263774   -9.34844161928219    8.50520834708033
C           0.39523076307440  -10.41429475321456    5.84919452881168
C           0.09774516897023  -11.73251767793686    6.26087566963873
C           0.04358665992173  -12.78002245710568    5.39517626339196
C          -0.24381750740634  -14.12959339053340    5.76217698423341
C          -0.78718170288371  -14.53424116803474    6.98208016448856
N          -1.00813910104051  -15.78659655912098    7.32678003901853
C          -0.75405188607485  -16.79278635052896    6.49886419163296
C          -0.28504253098213  -16.52384796062839    5.16956810100231
C          -0.00843693409124  -15.17499273083624    4.81650937726190
N           0.48205610014911  -14.87169493002191    3.60154370033819
C           0.67731803190754  -15.84747349812779    2.75915508782549
C           0.37712571254350  -17.18230909327950    3.09577849873823
N          -0.09343587736901  -17.50542760336072    4.27016116781751
C          -0.98429265081609  -18.09614052528075    7.05936777494161
C          -0.72633844325357  -19.27071341123021    6.44731041753126
C          -0.94327487691814  -20.59070501987954    6.97937546999232
C          -1.49369398869224  -20.92347040386224    8.20757578694075
F          -1.90062415792294  -19.97341026562661    9.06210865337769
C          -1.66182432295749  -22.26048445164603    8.63297147872340
F          -2.20560092541031  -22.45931825318423    9.84241954250912
C          -1.29837055469115  -23.33771843123917    7.87311669836774
C          -0.73583895219898  -23.06193043760013    6.61772967703430
C          -0.56055101708014  -21.70322027902958    6.17565955545584
N          -0.01295741049416  -21.64497769357320    4.96414779909449
S           0.25008295892195  -23.14027503655885    4.43987310356597
N          -0.30999543176306  -23.94170147548944    5.71117210406722
H          -0.18539658997342    1.81220944935916    7.66886383573739
H           4.09330588442197   -5.52386200993323    8.31799234230561
H           3.50102313894667   -5.75916150190514    5.74412331149490
H           2.20863277271551   -1.20028639851079    4.73586447805765
H           1.86970844220481   -1.36677189234102    2.11839182066516
H           1.50842846932830   -5.94192816490568    4.88680681788563
H           1.60601281228310   -6.55830476928429    1.88686147962972
H           0.68724412022618   -8.16399137089688    0.65347852492353
H           0.65807603947564   -9.94425527474232    0.66845626132008
H           3.16763754464105   -8.22546367993171    1.04319306527529
H           2.72704944395446   -9.10684854822998   -0.41937314169494
H           3.11158498424393   -9.99433721983348    1.05917036988025
H           0.80966805938956   -8.47663548930162    8.53220142227030
H           0.81504902796158  -10.25391181426223    8.57530677547601
H          -1.61888849445303   -8.44428561154866    8.11317188184654
H          -1.27567381237010   -9.35491462124278    9.58524944092420
H          -1.68142620748861  -10.20848601216586    8.09070006571577
H          -0.06139327838440  -11.89483455276435    7.31711226410618
H           0.24769444098153  -12.62288680837716    4.34318971359465
H          -1.07169099256253  -13.80809154189671    7.73193296246192
H           1.06917653110808  -15.57873765850438    1.78797851887445
H           0.51773114159780  -17.99201183787968    2.39291869685261
H          -1.38396336671298  -18.04944093406506    8.06191105438745
H          -0.31172223610715  -19.26662083569227    5.44906440030701
H          -1.43703298981704  -24.34716312268056    8.21991541820719
