73
 SCF done       -160.303085408367          0.000352244636
C           0.32610881119670  -14.08056153266237    1.71417719847912
C          -0.59577367120940  -13.90175253966451    0.72054833142461
F          -1.39772798596496  -14.91412625010004    0.37846405959254
C          -0.74680605133986  -12.67757994035045    0.02770126538875
F          -1.68070490089535  -12.62318581270465   -0.92145135375238
C           0.02618779172621  -11.56406475164652    0.30514835344669
C           0.99151969042187  -11.72684009773913    1.33648755822227
C           1.13637540916969  -12.98018835269112    2.03147392944816
N           2.09241649210815  -12.92979537415303    2.95865284817244
S           2.74440989348032  -11.46999462327211    2.96385151055305
N           1.85240763282193  -10.81230115696142    1.79034877909950
C          -0.12529979805695  -10.31273064161580   -0.39280376168578
N           0.65328450176629   -9.22887549912395   -0.06658385086825
C           0.34352789604627   -8.16629765957451   -0.84072594539336
C          -0.66672471979662   -8.55514987084158   -1.70075862608502
C          -0.96088085892532   -9.91188639972255   -1.41665796091537
S          -2.26099631188557  -10.41635898188658   -2.54131017025069
O          -1.79870915108350  -11.38300618469117   -3.49269998199495
O          -3.49506369887490  -10.65608728850010   -1.85130144023958
C          -2.32713141592056   -8.77313322897379   -3.32192755165187
C          -1.43068032581605   -7.94469425688348   -2.74940261536971
C          -3.26829908561061   -8.60414168696872   -4.36669464259207
C          -3.61506397091374   -7.41704947735371   -4.91897421610861
C          -4.56620247731467   -7.24200266925409   -5.95735565278831
S          -5.10880974602611   -5.59763685384221   -6.31694883009557
C          -6.18411404854382   -6.13867274994514   -7.55358938029100
C          -6.12553411997970   -7.48272431170541   -7.69306559435848
C          -5.20778901795223   -8.12672047422376   -6.79808786715581
C          -5.21183627517360   -9.52651957270951   -7.09926027843081
C          -6.09206163998724   -9.78781661630427   -8.11809266676967
C          -6.74463921839655   -8.51146557222459   -8.55408625250111
O          -7.58160557099898   -8.34631512343396   -9.41315601688204
C          -6.33239511713628  -11.06639923467250   -8.69993348828921
C          -7.22454364286219  -11.29066848167314   -9.69003603639155
C          -7.41144623157739  -12.57618997403424  -10.27583719281731
N          -8.34464455348275  -12.82471375063093  -11.25748987925793
C          -8.30344068704560  -14.12309878746259  -11.65101689684116
C          -7.31693310251948  -14.74933196379953  -10.91407392029506
C          -6.76407413871499  -13.77255429878749  -10.05103858331939
S          -5.47815733188210  -14.54537886580700   -9.10239396156560
O          -4.18863468482518  -14.00777151840098   -9.44121944881043
O          -5.82059608858695  -14.61199916319402   -7.70894697729030
C          -5.73923822864717  -16.15375058193692   -9.91507644133902
C          -6.73686603572744  -16.05704082537229  -10.81865259832924
C          -4.90686195562514  -17.23577508813826   -9.52144252167618
C          -4.90700472625554  -18.44839554021087  -10.11735796542492
C          -4.09227064847617  -19.58799261926356   -9.79342410932673
C          -3.16434921496697  -19.69218658234790   -8.76935049947016
F          -2.93876442934478  -18.66607311626388   -7.93664444150135
C          -2.41176757522224  -20.86535653879284   -8.53772200979898
F          -1.54292264812064  -20.85143041960476   -7.51591115560770
C          -2.53068172212946  -21.99438359094573   -9.29970049367325
C          -3.45631801229695  -21.94750770898423  -10.35283134586320
C          -4.22948485502874  -20.75765816853892  -10.59569642943546
N          -5.05032449600334  -20.90418932101785  -11.63315274598424
S          -4.86579340430960  -22.38306829478826  -12.23641572293358
N          -3.74181187184189  -22.91665200317487  -11.22212642985663
H           0.42771779755305  -15.01918104207322    2.23072682930701
H           1.35497535448678   -9.28578905059797    0.66412509466253
H           0.84481333214285   -7.22490150283104   -0.73543751283550
H          -1.26347233553133   -6.91936131376131   -3.04000820893174
H          -3.74615512544617   -9.51782762482835   -4.68716950494825
H          -3.17213408963461   -6.50783007934028   -4.53443657551814
H          -6.77772756131632   -5.42666347287666   -8.09261179837954
H          -4.60550452972108  -10.27164420596739   -6.61678476413564
H          -5.74800149050038  -11.89436299631575   -8.31680344863245
H          -7.82486127323379  -10.47921246635925  -10.07577081272458
H          -8.97107319408973  -12.12514161964421  -11.62428355104784
H          -8.95781238206841  -14.50439017117701  -12.40937454128466
H          -7.09186151568094  -16.87447071859458  -11.42675096493324
H          -4.24465300497168  -17.00440372452516   -8.70035138003474
H          -5.57346519597149  -18.62903373795543  -10.94967755570190
H          -1.94453344146725  -22.87494428360032   -9.10211918740961
