76
 SCF done       -152.143517914492          0.000494483239
C           3.51173420733005   -2.45086916292262    3.78808374969319
C           4.36283438166925   -2.06767341810360    2.83674144124420
C           5.08924949429242   -2.96373015226349    1.97935078078222
C           5.07097617171226   -4.35705377054387    1.96838892451284
C           5.95632145698909   -4.78623888457022    0.99323739718095
C           6.52183689651027   -3.65410866548010    0.40408023242099
C           7.51527213441785   -3.58074613672262   -0.60962198007718
C           8.06699063459726   -4.65337317848290   -1.22779604946104
C           9.08439340810790   -4.59410500769461   -2.21050993741665
C           9.76973149581580   -3.57487739815383   -2.77115833437158
C          10.75450221267253   -3.98824415386549   -3.73078023573554
C          11.71171244213812   -3.38985780059926   -4.52256925446517
N          12.36293771240603   -4.37805314047063   -5.19522989761041
C          11.84961271864355   -5.61312159661902   -4.87032951492259
C          12.35883072854868   -6.82567138401873   -5.42515586932546
C          11.76929800588437   -8.02998486814651   -5.27296019122763
C          12.29066730577363   -9.23903819070185   -5.81278310001112
C          13.53864633689999   -9.56594609267850   -6.19535988195678
C          13.66564978845756  -10.89648680460196   -6.71652929895526
C          14.68744643377452  -11.68675561102791   -7.20640400082924
N          14.15288024071191  -12.88106449028756   -7.54361946546484
C          12.80323319685368  -12.90016291210572   -7.28831835417390
C          12.02410161736599  -14.07568247014258   -7.57366752144820
C          10.65555611232461  -14.15731327094590   -7.36649552362791
F          10.00511492784823  -13.09654810092218   -6.87876293460882
C           9.88498366545202  -15.29555886627287   -7.63051453599100
C          10.44631574804438  -16.45492165261641   -8.11709235954264
C           9.65425536585580  -17.65454794786029   -8.37917378245045
C          10.07611752929963  -18.92277237338247   -8.04164946589606
F          11.21915444991566  -19.10168380968962   -7.36508885618142
C           9.31306217838205  -20.07826330076010   -8.33306104202923
F           9.81386675661858  -21.26489111125557   -7.95934445619233
C           8.10430412240421  -20.02479428510886   -8.96688300264096
C           7.62560110668795  -18.75245799674000   -9.31554024602094
N           6.47887285235340  -18.45987678548089   -9.92945544552379
S           6.38129507159038  -16.86868501118093  -10.11014423184173
N           7.77593287379333  -16.46288770800796   -9.42919255288139
C           8.39200813512589  -17.56964071184444   -9.01630997871695
C          11.83572072280744  -16.42737812366100   -8.38277622892876
N          12.56835664896414  -17.39629357248174   -8.92866604812930
S          14.08308783094308  -16.90836653069804   -9.05714117903959
N          13.89845704738623  -15.42476469358572   -8.44832708415189
C          12.61714597520132  -15.24953451740612   -8.11045254106389
C          12.47616870517143  -11.66212682916496   -6.76728385637998
S          11.15707490635626  -10.63743208246540   -6.10823735402935
O          10.66119364790485  -11.16033419485743   -4.87086497527435
O          10.22621009985935  -10.27103884553221   -7.13650904903178
C          10.84258829983224   -5.38285612022327   -3.95777419398006
S           9.66479648168722   -6.17823589611922   -2.89147308498842
O          10.33269889598082   -6.94600910226176   -1.87464583668791
O           8.62154369469709   -6.82873168371431   -3.63496119168961
N           5.96430487445012   -2.55365971011109    1.01081539551912
C           6.28737813463261   -1.18529027772809    0.69680195727157
C           7.47673956202825   -0.68628046357785    1.51692318627030
H           3.00184167708180   -1.73200661765206    4.40483619383044
H           3.29928357065655   -3.48680211719138    3.98264644077421
H           4.53606461805468   -1.00867581826439    2.69788305853056
H           4.47821641621636   -4.98041329198753    2.60692044036278
H           6.17928962639663   -5.80174762132475    0.73620428581754
H           7.86831196687415   -2.59943581165109   -0.89487573636099
H           7.74553448852755   -5.65355555274288   -0.97881928202599
H           9.62305053673022   -2.53260973439679   -2.53580252030573
H          11.97286207317392   -2.35828417767963   -4.64930434304689
H          13.10687661227083   -4.23195241434953   -5.85863837036665
H          13.26637628647189   -6.74013779711961   -6.00961198512302
H          10.82745408115693   -8.10765999131102   -4.74654789030112
H          14.39795776153024   -8.92001549845795   -6.10092027759824
H          15.73131313213369  -11.47907026008411   -7.33273150807410
H          14.62443010181758  -13.69100783596903   -7.93265462801634
H           8.82774024055503  -15.24441717146145   -7.42767293253738
H           7.54004546396126  -20.91543599772322   -9.18411521321268
H           5.41178057291045   -0.56074383875228    0.88886401465980
H           6.50837862759530   -1.11181101007294   -0.37093132106883
H           7.24988837624368   -0.73787105871054    2.57934639587398
H           7.70596849432005    0.34400810252036    1.25708744330389
H           8.35276983001554   -1.30124361951858    1.32460859500661
