92
 SCF done       -173.722937727233          0.000860827859
C          -5.14693177642145    0.62682060960530   -7.77549557277547
C          -4.18913295515813   -0.30052489717830   -7.44237350440577
C          -4.65428795039076   -1.22435128186125   -6.51480372669933
C          -5.98408257999003   -1.01504407220455   -6.14816437126681
S          -6.64633133421853    0.35095528025761   -7.01949083032618
C          -6.71984086354575   -1.80949762064260   -5.24399102720621
C          -8.08176058551797   -2.09748369697770   -5.19964228891081
N          -9.12120036822419   -1.49799102091758   -5.90474990567587
O         -10.19979156443186   -2.06496823209784   -5.93161782301570
O          -8.90841705884371   -0.41756936609321   -6.45211271593734
C          -8.29925055236617   -3.21374388063107   -4.32295367067812
C          -7.10713304514510   -3.61247161975405   -3.80390880427651
C          -6.08519663265882   -2.73217710104543   -4.27247173904638
C          -4.82533478449376   -2.58946263867787   -3.72129085753984
C          -4.08259900237719   -1.37361441062251   -3.60036870364074
C          -3.03523444270611   -1.58802281525373   -2.75686568316279
C          -3.03450681832253   -2.95522572221796   -2.33594137779438
N          -2.01192718825564   -3.42957674450158   -1.49877922560228
O          -1.02884899721765   -2.72025869767409   -1.36855762581183
O          -2.14651339926067   -4.50314912071694   -0.92772612459264
C          -4.11651834020840   -3.61899273905165   -2.93798091620029
C          -4.45357603959993   -4.97422153246729   -3.09782207527692
C          -4.06487552889645   -6.04964172777991   -2.33846636687963
C          -4.48178136011917   -7.35161734917711   -2.64934742154194
N          -4.19338939284854   -8.45058116655371   -1.87782924617367
C          -3.46198497761878   -8.45234773358625   -0.63100944671324
C          -4.33852701068501   -8.01336595791237    0.53819640762394
C          -4.74463589905550   -9.62553516929744   -2.40157338896666
O          -4.62764208744458  -10.71878268125550   -1.88386253998943
C          -5.41490371410121   -9.19870126391083   -3.61893711420054
C          -5.23976806775843   -7.81464139632688   -3.74685822808541
C          -5.88196750305845   -7.39267908143277   -4.98118546486875
O          -5.99081901927552   -6.30066247073778   -5.50279083821506
N          -6.39959037948720   -8.57385976650470   -5.52528322800328
C          -7.14645576865589   -8.57088743888809   -6.76287316341169
C          -8.65215048537439   -8.60080659188039   -6.51775526104538
C          -6.14807098198415   -9.66604442266271   -4.73188166849999
C          -6.57412492957450  -10.96638833404060   -5.03645550043800
C          -6.37396762340642  -12.00372775302437   -4.15984023314550
C          -6.72732581322269  -13.35658736172597   -4.29993206846965
C          -6.95416698950772  -14.19236324270762   -5.40745488646827
N          -7.09008267460245  -13.89445007642004   -6.77264389417552
O          -6.98495193765359  -14.82308590876430   -7.55587899059479
O          -7.32039428763193  -12.74462326459460   -7.12110316443957
C          -6.97560119400544  -15.55153906099573   -4.96669566902967
C          -6.76848621918762  -15.59437491849723   -3.61981698334177
C          -6.64576097348333  -14.25629825140480   -3.13600143639894
C          -6.66408785489947  -13.85097857109956   -1.81146003792150
C          -7.26619584688087  -12.66094682140905   -1.31242307481081
C          -7.37148455496924  -12.75270376409804    0.04579451039266
C          -6.77585495123935  -13.97820124642826    0.47815701115756
N          -6.68176701812198  -14.33460490409907    1.83049178234777
O          -7.13086778918525  -13.54970569379301    2.64907727751251
O          -6.17207295184615  -15.40679340337400    2.12673342983811
C          -6.28959314968336  -14.66701657801665   -0.63511566646594
C          -5.46428117450171  -15.80528091866260   -0.61229543043439
C          -4.60841569894923  -16.18291618664406   -1.60886604983442
C          -3.79678093091875  -17.33719958623389   -1.55508301260964
C          -3.71631700410359  -18.32631642984010   -0.58723827341126
C          -2.78958987843472  -19.32289139230756   -0.89982826206171
C          -2.16195345521485  -19.10733597814265   -2.09735667037426
S          -2.69278767524825  -17.68010661629755   -2.86745258692574
H          -5.03984222878786    1.44306008744715   -8.46341420584691
H          -3.19461493590682   -0.30862674697091   -7.85077846577017
H          -4.07533809659934   -2.05363631038543   -6.15267877418558
H          -9.27224891811717   -3.62179548631973   -4.12405271055031
H          -6.97084729746149   -4.36876977445289   -3.05675691072440
H          -4.37574763116875   -0.43093127082822   -4.01845202013095
H          -2.30939364396563   -0.87047772642224   -2.42350371359525
H          -5.11136405743991   -5.17208015669398   -3.93468824565796
H          -3.44601182742139   -5.90180627609019   -1.46776117975622
H          -2.58853001228721   -7.80270776869953   -0.72225215952523
H          -3.12794404960463   -9.48158372760698   -0.47528293987406
H          -4.69833006020353   -6.99756998901045    0.39342454949063
H          -3.76132652157383   -8.04845450794829    1.45720752808908
H          -5.19265545648053   -8.67905068425357    0.63856890313239
H          -6.83940073844346   -9.42394451326407   -7.37243958482176
H          -6.87555132272392   -7.64606748805820   -7.27914168186807
H          -8.94183194563364   -9.50511390811689   -5.98808382442551
H          -9.17455347808184   -8.57493803193692   -7.46934570850237
H          -8.95506134652780   -7.73659518886385   -5.93121772103052
H          -7.08941580999935  -11.13538427080090   -5.96844673143328
H          -5.88798618331077  -11.76910668629060   -3.22118054640956
H          -7.14517483800871  -16.38126689571548   -5.62669736326005
H          -6.80625471059382  -16.46906384731862   -3.00012283565934
H          -7.69262491899789  -11.88737075519784   -1.92036677617392
H          -7.82826262959334  -12.04712464070995    0.71414779338803
H          -5.45936467112536  -16.35513935667611    0.31925114830760
H          -4.49785185824253  -15.55972842567843   -2.48588578977743
H          -4.30340789788192  -18.31882647115730    0.31257418375613
H          -2.58577096157398  -20.17139601459526   -0.27194102801724
H          -1.41548091975774  -19.71749136907713   -2.56688976992371
