90
 SCF done       -165.853358131918          0.000892819668
C          -1.48133538272484   -1.23967607922530   -5.95905132066434
N          -0.23865882463875   -1.58168935717064   -5.64387618280343
C          -0.06766548316076   -2.46639714142775   -4.70324674628822
C          -1.19541659465402   -3.11361042083864   -4.12127238165652
N          -2.39201900420179   -2.61383229333299   -4.43302565018482
N          -2.53092320012903   -1.67848446983697   -5.29414751196862
C          -1.10348969654631   -4.19466167921911   -3.19884012318800
C          -0.25723871860499   -5.31264749397974   -3.24649708079650
N           0.62644740509353   -5.64405441101635   -4.27019894537096
O           1.38107698807907   -6.58933390473420   -4.10498504711092
O           0.59748823234108   -4.97631958712854   -5.30261650077384
C          -0.57621558052748   -6.17043654792504   -2.15534025743641
C          -1.64338589442670   -5.63426318124490   -1.48446261384918
C          -1.99841002289357   -4.39774747702252   -2.09290484010730
C          -2.95692374859494   -3.47573715576081   -1.63067185239806
C          -2.78532630741671   -2.08816008621024   -1.52284698998958
C          -3.81396383939832   -1.55989761525663   -0.75999347975708
C          -4.69620765187499   -2.59302849959860   -0.40063264425993
N          -5.86094366789727   -2.38754845725732    0.34068582091649
O          -6.58864099113414   -3.34457483621760    0.58621898195386
O          -6.09560265570654   -1.25128264635737    0.72358372317510
C          -4.23154322673157   -3.80887877113566   -0.98175591678572
C          -4.96559073059270   -4.97615463221664   -1.10811158398727
C          -4.71159725702607   -5.98654772090728   -2.02891376727056
C          -5.50323134586167   -7.11460017297631   -2.18647066601892
C          -6.72891363440807   -7.39546563474057   -1.52376978094652
C          -7.30166898607672   -8.51671541289370   -2.08339158403576
O          -8.44238401098022   -9.13849959643636   -1.77791124104980
C          -9.21035413921119   -8.60066919091122   -0.71925323991929
C          -6.42974296851432   -9.03964357031164   -3.10863404366504
C          -5.31998560708994   -8.13527285325440   -3.21376505252289
C          -4.30442958377723   -8.16771087964839   -4.15938395131705
C          -2.98243491433711   -7.70948396856347   -4.03188860259680
C          -2.31490810000095   -7.96068619176393   -5.21894221966722
O          -1.03754530077935   -7.70322641903988   -5.38783896600918
C          -0.38424312897208   -8.08940922731944   -6.58411715034024
C          -3.26687980772222   -8.52796848738635   -6.17681264438125
C          -4.44281867127480   -8.67389026080353   -5.54671627557197
C          -6.60247047220177  -10.29732980603988   -3.68466645466499
C          -5.61201442221343  -11.00205866760805   -4.33653031167930
C          -5.76296742195245  -12.19990444933303   -5.03651493747985
C          -4.73191343290019  -12.83356035174153   -5.73502176648181
C          -5.22495707860122  -13.98974848532231   -6.35748424104447
C          -6.65503035650701  -14.07201834994752   -5.99354853063292
C          -6.96622617720582  -12.99320521381919   -5.22797131531780
C          -7.55974582632756  -15.06532688696600   -6.38424048756360
N          -8.32764768265745  -15.86427535398955   -6.68674786814515
C          -4.52264026075229  -14.87878460910464   -7.16110901723720
C          -4.95437252137081  -16.12866130450546   -7.66580936160758
C          -3.92196485623607  -16.71489364255394   -8.38124025765927
C          -2.79888255856735  -15.79961377648757   -8.36315056750928
C          -3.14421495770682  -14.69901227155575   -7.63510340390570
C          -2.33979858370857  -13.57203169961230   -7.44728402218635
N          -1.67048322809464  -12.64478315153382   -7.32369032763493
C          -3.97515354056536  -17.98867028865711   -9.00239332215106
C          -2.95507478659538  -18.57749829005833   -9.67160132916545
C          -3.07068828022433  -19.87385471880948  -10.26598467457854
N          -1.99257503605276  -20.38109176263594  -10.89292356563101
C          -2.11351011166642  -21.57135961547003  -11.42467018984051
C          -3.32236894927037  -22.27128734732807  -11.32646052440275
N          -4.34120474813529  -21.70792221482395  -10.70218469448270
N          -4.23116591753622  -20.54175923736370  -10.18627609414758
H          -1.64007135179390   -0.53933520619521   -6.76328454414408
H           0.93779565327168   -2.64180854809950   -4.35226375289984
H          -0.05918916981254   -7.08661892091709   -1.94347428705989
H          -2.10650331231535   -6.02637772389864   -0.59861864583365
H          -1.93534990882833   -1.53970008867009   -1.88219762807088
H          -3.93461893252088   -0.53356304038488   -0.46741910268970
H          -5.85827653861753   -5.03769209305403   -0.50049803298239
H          -3.88799528225554   -5.85225015572938   -2.71198417658027
H          -7.14728994193518   -6.79364780741408   -0.74036106200597
H         -10.08514597219458   -9.24110121888586   -0.62693875101132
H          -9.52502693705965   -7.57793958446110   -0.94249216877360
H          -8.64641801737513   -8.60996218988038    0.21720932345088
H          -2.50703648847809   -7.37014170054503   -3.13498508623713
H           0.66703691632689   -7.85301625861965   -6.42728566186697
H          -0.76437779082835   -7.51829634866015   -7.43492999547553
H          -0.50229378866619   -9.15906765652542   -6.77084853954903
H          -3.04472534685462   -8.76107642581272   -7.20037392276480
H          -5.37405293800111   -8.98818709298753   -5.97673285072644
H          -7.57185421379832  -10.75577708590089   -3.53881637722023
H          -4.60550533407035  -10.60511043677699   -4.31092469386633
H          -3.72048601587611  -12.48181642565814   -5.78554880164982
H          -7.93331868394937  -12.76673412029002   -4.81941462484975
H          -5.91990874016366  -16.56322482419273   -7.49394257490844
H          -1.85600419157643  -15.95857797007293   -8.85129951860688
H          -4.91042475585133  -18.52803193741931   -8.92343987594871
H          -1.99314536415478  -18.10266909497510   -9.78976855988061
H          -1.24775199815773  -21.97611628276001  -11.93205493925850
H          -3.47863429384185  -23.25590193098830  -11.73631555417372
