101
 SCF done       -194.073069442876          0.000751824191
C           5.14620326383864   -0.49631746988774    8.43793707712980
C           4.36894304634936   -1.45701701421538    9.10511585471375
N           3.74480456877196   -1.33636699060730   10.27834043168769
S           3.00967632708347   -2.72183302028311   10.61518372419269
N           3.41708236339157   -3.54329178856408    9.29796652571697
C           4.17643453518610   -2.76101584257050    8.53239643527250
C           4.76328165998430   -3.09003139440138    7.28890015057767
C           5.51940166287645   -2.11930973512827    6.67205823844590
C           5.70590163588678   -0.84519736857427    7.23934494388849
C           4.62255116878503   -4.44435645749907    6.76940869241381
C           5.13509986070383   -5.56359725594548    7.37314607420222
N           5.93053400542351   -5.61052533600141    8.53440245647894
O           6.22474683501990   -6.71171018919196    8.96445415327229
O           6.29549632287580   -4.56050122713096    9.03579225455372
C           4.81018371233991   -6.73929969540002    6.58851556374634
C           4.05346246330939   -6.34936570029980    5.54392850124493
C           3.84230605641341   -4.91638574039272    5.61807408759640
C           3.01228223467977   -4.15722320602985    4.82685081083350
C           3.02813756651359   -2.73080628891237    4.67756991916299
C           2.28498862485406   -2.40144329741243    3.59239166037983
C           1.70346164004115   -3.58971961475589    3.02864519233375
N           0.85450616465616   -3.48037825785559    1.91664369486307
O           0.42936454592791   -2.36795660753474    1.65183786740400
O           0.59917452592786   -4.47261830892441    1.24686220311750
C           2.06064152465681   -4.68830754875787    3.81780472876114
C           1.52595836770886   -5.98658567508010    3.93308745567288
C           0.82306594442301   -6.69308275241350    2.99264758732378
C           0.30579972034559   -7.97325452122630    3.25821917441309
N          -0.37764396543313   -8.72381798851684    2.32975617381899
C          -0.66167773036061   -8.34451390920819    0.96498492827601
C           0.54371736874051   -8.56207770109521    0.05455997627794
C          -0.75753467437891   -9.97778333593030    2.83399530175987
O          -1.35858796616125  -10.82161163067392    2.20346354943019
C          -0.26733825960948   -9.96461038896809    4.19703188954342
C           0.37324991756899   -8.73864713775125    4.43614952901224
C           0.83582995513310   -8.75685887045926    5.80944286692379
O           1.42656094596654   -7.93528337140963    6.47933238256459
N           0.44033100647570  -10.01890319627059    6.30653174426089
C           0.73944467778441  -10.38150018069670    7.67095025100568
C           2.04282834526145  -11.17056050964054    7.77452320409496
C          -0.21540096968234  -10.75185051161744    5.35229586334505
C          -0.80371501440532  -12.03623124227043    5.39218967755122
C          -0.74016090236503  -13.00797303028870    6.33893253227860
C          -1.40661103745667  -14.26082235866884    6.25085426168328
S          -0.76756017993708  -15.59098422422238    7.16675936022952
C          -1.97480614672486  -16.68052188617517    6.57330231679308
C          -2.83776967969305  -16.02370912221408    5.70402079003740
C          -2.52698928612872  -14.66288820276136    5.53145270052157
C          -3.41247367253776  -13.73473283362539    4.75660081219393
N          -3.73767211055808  -12.52826324108327    5.57659291999311
O          -3.93557864937682  -11.50194984005868    4.98105733926388
O          -3.83285654955365  -12.68081018729414    6.76889168999481
C          -4.75202844402974  -14.40176087777758    4.42206684034264
C          -4.48048078658790  -15.77809241890598    3.83126594950684
C          -3.92927686772694  -16.69576624841224    4.92966887234128
N          -3.40606921209595  -17.90887428403223    4.22894013604694
O          -4.19499888143485  -18.79604412491854    4.02851007960972
O          -2.25831482291741  -17.88730870235110    3.86559853378592
C          -1.91447435229922  -18.03720573758391    7.01633551919504
C          -2.92367173051995  -18.93088097607667    7.01604742226111
C          -2.83588134842217  -20.30465270570766    7.43567344640047
C          -4.03694645422613  -21.06193423629631    7.47454831919791
N          -5.26604292987484  -20.63057620242781    7.19591219420630
S          -6.29163004290011  -21.85720724018232    7.36696491473130
N          -5.24502797058516  -22.98751276670378    7.81040241656506
C          -4.02227595246040  -22.45204387662952    7.84062249599483
C          -2.81432882969252  -23.08326075669401    8.17535564357971
C          -1.66818904257495  -22.33177495634386    8.13528195734389
C          -1.67412748815521  -20.97697393693237    7.77244306689903
H           5.29658074635987    0.47358053751689    8.88295569328016
H           6.01249830862075   -2.35309428280422    5.73924358906344
H           6.32095297226611   -0.13418785868890    6.70837050787433
H           5.15765164104084   -7.72443896213449    6.83158144907679
H           3.71167184333737   -6.97418532991564    4.74386475042493
H           3.59505664251858   -2.05362102628647    5.28259921391964
H           2.12604805530661   -1.42253313808128    3.18037044685374
H           1.67950211073807   -6.45384221105528    4.89709193535392
H           0.67155089977894   -6.27875680448834    2.00852235129344
H          -0.98189695589982   -7.30064960948651    0.93490860174174
H          -1.48849784936498   -8.98172246888365    0.63984536750973
H           1.38282704704199   -7.94544167795506    0.36705261795165
H           0.28095245882901   -8.29717256823712   -0.96521098628157
H           0.84702737006867   -9.60622521170132    0.07710005904536
H          -0.10416243061035  -10.93708268166908    8.08686467719060
H           0.84755604188085   -9.44148216907802    8.22013058361729
H           2.01409324902213  -12.06668211322120    7.15806634691190
H           2.21822365972847  -11.45766232086157    8.80736398681360
H           2.87244327646422  -10.55154399197243    7.44279433996747
H          -1.32977698651329  -12.23761162409354    4.47022188357150
H          -0.10267086110959  -12.89799774049886    7.20290693726511
H          -2.94696795222309  -13.38008914011067    3.83084645103293
H          -5.29963354543791  -13.78145930683443    3.71198065151788
H          -5.35004619111963  -14.50376000954555    5.33127460653606
H          -3.74788666374233  -15.68900802615144    3.02511451580109
H          -5.39523315412809  -16.20833300967886    3.42254940666984
H          -4.75048501685546  -17.02660232231009    5.57387763949253
H          -0.95467183921157  -18.32457965484529    7.42368962613003
H          -3.92106715219469  -18.64868496842769    6.71556559172997
H          -2.81069328850157  -24.12572260857876    8.44815421187267
H          -0.72363202949876  -22.79181736657322    8.38450186079030
H          -0.73113502152738  -20.45353707921010    7.74551575903232
