95
 SCF done       -184.856734918894          0.000965199790
C           2.47423591141232    2.32224371872354   -6.06093475721241
C           1.51681324448488    1.53891501654121   -6.58979264727494
C           0.13843942371266    1.80644411489656   -6.28230077599923
C          -0.90539132889279    1.03079448551527   -6.76319521896449
C          -2.23736093566286    1.32342611696405   -6.42975173289210
N          -3.31967938593855    1.57955425818102   -6.14133703427780
C          -0.68661510663883   -0.08514747668326   -7.58582279605211
N          -0.50230127783148   -0.99750364493935   -8.25888604965924
C          -0.09354769174232    2.93588275168054   -5.44667985226638
C           0.95197041681785    3.67293515209773   -4.96991048109678
O           2.23229179631817    3.34975079224702   -5.23981647276818
C           0.75920729341477    4.86229931649891   -4.17487867027574
C           1.40068284189640    6.08102471792478   -4.30093371465456
N           2.37443857317887    6.45044576149454   -5.25423833289469
O           2.97089850766410    7.49323243712489   -5.06303338254110
O           2.54619223458976    5.72229579586007   -6.21527869304042
C           0.82951821152297    7.01706115664756   -3.36946697277924
C          -0.19079159828738    6.40539302938771   -2.72088402278104
C          -0.27252410112207    5.03626951830378   -3.16478848544947
C          -1.05698465667347    4.04021562747719   -2.60088659431022
C          -0.69581372952532    2.67661926016046   -2.41588107430495
C          -1.57537268595311    2.09718693973879   -1.54126583917166
C          -2.58086244900225    3.04485576569808   -1.19775510277251
N          -3.66418232910865    2.74345743012243   -0.35623238698905
O          -4.49889837571523    3.61220560386143   -0.14339733712297
O          -3.70175748370137    1.62908603551078    0.13184005314973
C          -2.32440606378410    4.24765641568264   -1.87252833894864
C          -3.19944948600531    5.33336491010831   -1.99997106299609
C          -3.13160140730049    6.24325346023245   -3.02819449202756
C          -3.91278977290139    7.37589843299094   -3.28178373941460
N          -4.94816059990590    7.95700993953881   -2.58551509687272
C          -5.51714171458361    7.54803273893093   -1.31942813438572
C          -4.61302784908081    7.91174735450898   -0.14576092212402
C          -5.42797403950061    9.10306564807229   -3.23317487612476
O          -6.33910096007388    9.79064943907573   -2.81093361411786
C          -4.61596212360686    9.22679368228293   -4.43106701359142
C          -3.70503480123219    8.16850694988014   -4.42692227742776
C          -2.86334369657054    8.27282056593966   -5.60345847929241
O          -1.93346212976614    7.60357977028111   -5.99347880895426
N          -3.35258604083817    9.41643055042419   -6.26744121315236
C          -2.80254176527963    9.84081963379131   -7.53376221038586
C          -3.66763086229973    9.38959010206248   -8.70745944630041
C          -4.39646474518710    9.99732832862256   -5.59379019848172
C          -5.09290244469255   11.13998302032112   -6.01571113861684
C          -6.11390568089234   11.66187456348391   -5.26442280809640
C          -6.88283074625893   12.77837303705976   -5.60041797964755
S          -6.69253711286470   13.65663040115348   -7.08528684617410
C          -7.95703399201580   14.77174574384498   -6.69940276207102
C          -8.51799863609311   14.48611438172685   -5.43904018844255
C          -7.91137099282687   13.35067553959312   -4.81834844390119
C          -8.34239114092827   12.91230467324646   -3.55795264059471
C          -9.35571982644826   13.59336992349305   -2.91993138669820
C          -9.80481224710486   13.17714569144320   -1.64374614777756
N         -10.16410579761911   12.83631278854529   -0.61130158598281
C          -9.96172075507532   14.72838893281636   -3.53381228633595
C         -10.99885596138375   15.41652509613259   -2.85890610399456
N         -11.83802888827926   15.99079739333957   -2.33237591382466
C          -9.55211319858328   15.16635353463021   -4.77295540977543
C          -8.29724109549827   15.79571478384788   -7.63451489880437
C          -7.67866858164139   15.92827073854661   -8.84887681189386
C          -8.05266555792818   16.95286366758789   -9.76133003575404
C          -7.44214865082655   17.09438833867458  -10.99398068054315
C          -7.81492653315203   18.10504195095993  -11.89572616455429
N          -8.12521464247975   18.93360450491035  -12.62749093521547
C          -6.41616980240119   16.22573468427821  -11.40251401085249
N          -5.57985206445896   15.50189914529915  -11.71118975316817
C          -9.10977271082247   17.82383079499462   -9.31011296046040
C          -9.65776950665862   17.62267145162077   -8.10400021494043
O          -9.29111995569125   16.64341678366847   -7.25315658018869
H           3.53009517262323    2.19230498383094   -6.24433440478249
H           1.77041995318062    0.72156160751027   -7.24419916041671
H          -1.10550564585262    3.23163872809481   -5.22184548480869
H           1.17878070959648    8.02485754194617   -3.25526826747109
H          -0.78752966517991    6.82015561991294   -1.93250961320428
H           0.19851259411161    2.22297402868336   -2.79615846108560
H          -1.54331150667410    1.09576687164662   -1.15494170030088
H          -4.00871513964252    5.36028717109314   -1.28516432240518
H          -2.39356207398080    6.07951512859573   -3.80369559490096
H          -5.73043786361811    6.47745246864503   -1.33972889311862
H          -6.46425690541873    8.08745503801921   -1.22914009030019
H          -3.63138825883115    7.45510908832278   -0.24661999161348
H          -5.06354680465570    7.56247974355240    0.77833044040403
H          -4.49020800091982    8.99072642009385   -0.08780583074435
H          -1.81544934252255    9.37646122629222   -7.60648821813733
H          -2.68220606968496   10.92736190107206   -7.53185452973041
H          -3.74058711318548    8.30503153740184   -8.72074825434669
H          -3.21780933313198    9.71782041867928   -9.63986245171727
H          -4.67105396232530    9.80387697754741   -8.63835742493727
H          -4.81546681261766   11.61212154394272   -6.94782176308886
H          -6.36158681786660   11.17639893749416   -4.32976579931467
H          -7.89150838189413   12.05245247552757   -3.08655168345356
H         -10.02400201114831   16.02558214100657   -5.21898196143218
H          -6.89385894170032   15.24120493104132   -9.12602467941120
H          -9.44941837815325   18.62529531667274   -9.94437321972375
H         -10.45159012531838   18.22691501921594   -7.69153562408911
