54
 SCF done       -118.558415600890          0.000589383891
N          -1.77010382158428   -2.50141758737508   -7.09891103746272
C          -2.00125784257688   -2.89720917049421   -6.04490301220906
C          -2.28555200638532   -3.37285509654333   -4.75505224868657
C          -1.99207538570840   -4.72458285539009   -4.51194273025911
N          -1.75004007121163   -5.82981574626316   -4.31210705952882
C          -2.82121636805167   -2.55489499186107   -3.77939516002456
C          -3.11855144663424   -1.16470290044388   -4.02053093944444
C          -3.62739955909184   -0.41250592489090   -3.03315228238933
O          -3.89421800807401   -0.86233247314360   -1.79511614890515
C          -3.63479550657478   -2.16778948964011   -1.52943397268426
C          -3.94844513451119   -2.56555058205874   -0.19058697505608
O          -3.77611247258341   -3.86053675491646    0.18856010283348
C          -4.13702551177118   -3.95875722440407    1.48167733814383
C          -4.07283141293241   -5.21970822849952    2.14092797023816
C          -3.70795253538002   -6.43442969488046    1.61910957052430
C          -3.77667533471843   -7.48004047956489    2.55265246930776
C          -3.36296692106174   -8.86195339711466    2.16248409311483
F          -2.78427049850593   -8.88136653941380    0.95375740529602
F          -2.46503145593064   -9.40369456023185    3.00601544333901
F          -4.39134304690703   -9.72936663475876    2.08686717529511
C          -4.20763241051688   -7.08332538119713    3.81648234997425
C          -4.45175149465766   -7.85052980483822    4.98608679855386
S          -4.59798965518818   -9.59066507116877    4.93663204173471
C          -4.90571335008546   -9.66830284856549    6.63061642715058
C          -5.13307507935458  -10.92980084668936    7.24903216122674
O          -5.38223849077863  -11.06103365470281    8.57349872775247
C          -5.54786065282164  -12.36494764811007    8.82077967766975
C          -5.41466396230785  -13.10898139872795    7.68442259318257
C          -5.14439469111101  -12.18151837409831    6.65318175195524
O          -4.93245647823014  -12.38808723691297    5.33756773042640
C          -4.89594220487681   -8.41303989247579    7.21516891847650
C          -4.66485573532814   -7.38385888066161    6.28055474428019
S          -4.65679574534205   -5.68728438399366    6.72544777560664
C          -5.35322078174533   -5.86923949596071    8.40522197251291
C          -4.70471483456802   -7.04824066503849    9.11048830137985
O          -5.10412247340173   -8.27810907237042    8.55280483261882
S          -4.50047498306890   -5.36547403582841    3.81961046035842
C          -4.54634406305355   -2.73025449861721    1.96134120831204
C          -4.42910685216384   -1.82979324263553    0.88824725760525
O          -4.71205737942333   -0.51667471259111    0.86829412247221
C          -3.11740750120401   -3.01652903784427   -2.46363371905459
H          -2.92729267284568   -0.74154930501549   -4.99292856035380
H          -3.87396389018539    0.63349515031520   -3.13735091630816
H          -3.39527015757138   -6.56548612399044    0.59928702464600
H          -5.75517336858154  -12.64976800460080    9.83300717959260
H          -5.49802099306963  -14.17291768393824    7.59272697015693
H          -4.97463176716598  -13.33017746575994    5.13660851529596
H          -6.42968254488306   -6.01674050416389    8.31854855896771
H          -5.14363091106512   -4.93431430356275    8.91939184570149
H          -3.61108455827554   -6.94748485211581    9.07268750654476
H          -5.02451378557684   -7.09466201810041   10.15445133494305
H          -4.88508642720243   -2.52203262946813    2.95633979561606
H          -5.02761398547337   -0.23912777204231    1.73699709933114
H          -2.92957177867770   -4.04354397262917   -2.19595248977564
