97
 SCF done       -183.635764812253          0.000833313357
C          -0.87182321050654    3.64491963553783   -8.95905559123255
C          -0.00473224992064    3.44135841214703   -7.88104666077965
C          -0.40964161358782    2.79640630313039   -6.73252996795740
C          -1.72776388690930    2.35271193270966   -6.68755248031270
C          -2.59496937372288    2.56454396946726   -7.78521898573100
C          -2.18472874641604    3.21385874458360   -8.93452483855101
O          -3.79145873265311    2.03506923879835   -7.46295269718977
C          -3.62326349700320    1.52096563013955   -6.21823506597676
N          -2.43153984148789    1.69403563767679   -5.72081910065175
C          -4.72554050210031    0.86108928374496   -5.58249001928168
C          -5.82683210328731    0.30537928309760   -6.21720870129812
N          -6.03829822492555    0.08392483420491   -7.59497433320584
O          -5.08208595611799   -0.05247661882029   -8.32947770545882
O          -7.20163254785651    0.00127968885035   -7.95788659739304
C          -6.79401834716559   -0.10599895650967   -5.23771072375091
C          -6.33269478340051    0.24716952564621   -4.01653503780095
C          -5.03934238647040    0.88636515607811   -4.16377562043432
C          -4.33092806718078    1.44333178821839   -3.10852363303335
C          -2.93571363273501    1.47463688770820   -2.86800266016323
C          -2.72566564438799    1.82301520636992   -1.55704447023274
C          -3.97576230976923    2.11212470487433   -0.93593336432253
N          -4.11414877109899    2.57767421849217    0.37687950715142
O          -5.23992885134555    2.83952923184854    0.78322785026526
O          -3.10462312575293    2.68626455387788    1.05194617845443
C          -4.99343794176004    1.94844138070338   -1.88408149466516
C          -6.33043610933197    2.35012437159933   -1.82107050138762
C          -7.04617022604837    2.63296151803053   -2.96617276997413
C          -8.42246768845265    2.75546639734563   -3.18819381620017
N          -9.49924517421178    2.62034014114625   -2.34682164045240
C          -9.48296119936187    2.53532388860084   -0.90564220180693
C          -9.16974590485802    3.88113856107697   -0.25831541460547
C         -10.72092709204930    2.64631068936715   -3.05055611306535
O         -11.80363762615550    2.58502839793528   -2.51222204988861
C         -10.33458687403304    2.76921692179240   -4.44668812668774
C          -8.93898564056432    2.87231561930742   -4.48976917596453
C          -8.52538244035732    3.02234401490275   -5.87179549844742
O          -7.43522534698887    3.16227893746106   -6.37839931048128
N          -9.73923444821480    3.01281362568700   -6.58912514263134
C          -9.75586004738809    3.07356233192535   -8.03216435905917
C          -9.97028886690697    1.69927097459202   -8.65891678631881
C         -10.82029715729606    2.84242210808246   -5.76522487740624
C         -12.15825487430065    2.78617194349198   -6.21088153053711
C         -13.18390147180656    2.42559618192032   -5.39170916704832
C         -14.54175237714106    2.41873151414829   -5.77859274378793
S         -15.09981004872830    3.20344161551407   -7.23735826988953
C         -16.75426638831178    2.86223327197476   -6.86596657260231
C         -16.86994243641952    2.15160623267631   -5.68352054873367
C         -15.61736101545557    1.89185700706672   -5.07291277039873
C         -15.48509495544381    1.07873442191524   -3.85609162831858
O         -14.42565784680663    0.63567765189321   -3.45866702858382
C         -16.76418482518984    0.81293303759303   -3.16099690204810
C         -16.72073290320662    0.27281450672384   -1.87859520300585
C         -17.88874501446811   -0.00943790246391   -1.19465100760460
C         -19.11717998188529    0.22980409673340   -1.79352632483530
C         -19.17249735974710    0.75069259378567   -3.07313818484969
C         -18.00360698813888    1.05541333949234   -3.76642505367158
C         -18.12512135790432    1.61114184187116   -5.13416337704282
O         -19.17865935081654    1.60695142047095   -5.73996569125572
C         -17.78893246294307    3.35570600302068   -7.75791166034220
C         -18.92514175555057    3.99481587696381   -7.22964325228202
C         -19.92244141149746    4.49307671327010   -8.03572034804026
C         -19.77270439394234    4.34267911774595   -9.40913899045182
C         -18.62243203251093    3.71508469454287   -9.93585358235979
C         -17.61320768862475    3.22566536104685   -9.13416879035987
O         -18.74337711371853    3.71741871748835  -11.28752514912047
C         -19.92464200616092    4.32749112477201  -11.50991281568980
N         -20.56770592430917    4.71350682828047  -10.46867736415207
H          -0.50219722188921    4.15238644005499   -9.83721116647064
H           1.01081766061634    3.80001120395638   -7.95688460310498
H           0.25518219252736    2.63574497601438   -5.89977947486152
H          -2.85699786424915    3.36360668392219   -9.76318515490138
H          -7.70011068149106   -0.62741537652899   -5.47982422138984
H          -6.77575471219579    0.00348260700561   -3.07084023127295
H          -2.19921857153548    1.17680215370696   -3.58716843974480
H          -1.78266696214898    1.88118535106843   -1.04581878692705
H          -6.75226807305078    2.48552947544017   -0.83483911749014
H          -6.48223871560216    2.76348405803900   -3.88175158599083
H          -8.76307837867002    1.77334392031476   -0.59553251792923
H         -10.48605454228700    2.21097179867885   -0.61398400709432
H          -8.21601130268672    4.27237494323755   -0.60411705410343
H          -9.12328451772364    3.76611836384769    0.82057613181852
H          -9.94806764147059    4.60108131317831   -0.49995638716957
H          -8.77796879300993    3.46168391801226   -8.32828877646432
H         -10.52783416342923    3.77882392714124   -8.35437856396727
H          -9.14999332240215    1.03505945079044   -8.39873403364299
H         -10.00311791424842    1.79481743484325   -9.74032486335223
H         -10.90327142225151    1.25680770074708   -8.31703801886816
H         -12.36284845110021    3.02796732366674   -7.24586108715853
H         -12.98419822808164    2.11137626248207   -4.37384818499851
H         -15.75299174304941    0.08583289217647   -1.43760132032554
H         -17.84330535300706   -0.42021807610493   -0.19736388528700
H         -20.03076117105519    0.00619099407458   -1.26361584575216
H         -20.11796305905483    0.93446793780856   -3.56164390697872
H         -19.00430469670700    4.10615642831852   -6.16012637539673
H         -20.78980595225685    4.98357071420179   -7.62704930738521
H         -16.74237510849468    2.74324427254301   -9.54951177151867
H         -20.24633111500098    4.45056552379859  -12.52576948763001
