90
 SCF done       -179.229123681090          0.000806415808
C           1.61247204841798    1.36868770285657   -3.73372220482241
C           1.03380413471912    0.38821374919821   -2.96830533030828
C           0.17809696299040    0.64818323813195   -1.78559893135878
O          -0.47390895461059    1.64637491794796   -1.67976444641798
O           0.21595820886378   -0.27641585000062   -0.81476842686151
C           1.52834586651028   -0.81842635022913   -3.57151766942394
N           2.32496218853902   -0.51188354135449   -4.57354705121356
O           2.37634742754044    0.82564120245781   -4.67112236561191
C           1.25550517123765   -2.20305543338261   -3.28115316831978
C           0.17581621776874   -2.76065055671160   -2.65511671557572
C           0.32819462530611   -4.19123832387513   -2.66859541580377
C           1.61832457731912   -4.46087891195534   -3.32613131985023
C           2.15507532688140   -3.27027439985885   -3.69888268680618
C           2.24619741025938   -5.70564920819765   -3.47337584101856
N           2.81525736108265   -6.69827406272176   -3.56558405719677
C          -0.55109192087603   -5.12774081417268   -2.18669662444872
C          -0.42710789638862   -6.54520192037789   -2.27411141722197
C          -1.46580115958797   -7.13777101235648   -1.58226600949927
C          -2.30900608056772   -6.07319500939063   -1.05188152367128
C          -1.79116906116153   -4.87647444479252   -1.43073200222445
C          -2.36083274455861   -3.63137698829872   -1.13292385907054
N          -2.85948652915734   -2.63080285941753   -0.87365225841335
C          -1.60987674293444   -8.54438832750161   -1.46588927742333
N          -2.32896160511236   -9.24634904452849   -0.53911530148162
C          -3.05799546224287   -8.74581989223277    0.60434644548714
C          -2.13782749571914   -8.10241522435603    1.63589410029205
C          -2.18381114623039  -10.64343320722511   -0.71277295449560
O          -2.74083063340045  -11.46337205988881   -0.01990250604610
C          -1.30960148257786  -10.77361765454845   -1.86068078045976
C          -0.98818884696628   -9.48367786629283   -2.30805809705264
C          -0.22640355667602   -9.61235278609945   -3.54139030852407
O           0.22527922572383   -8.79524960965359   -4.30752872008001
N          -0.12770877408753  -11.00605163534758   -3.73779245187209
C           0.64314067293420  -11.54776248924392   -4.83213970324709
C           2.03818445942968  -11.97230331161831   -4.38265244099458
C          -0.73856377986311  -11.71376904864424   -2.73780615865872
C          -0.77448672151056  -13.11812923882890   -2.64888079345131
C          -1.18147873511427  -13.75687688412548   -1.50915459275534
C          -1.25608884000925  -15.15171460614253   -1.33320533144870
C          -1.02892179502977  -15.83492753279727   -0.14253321429077
N          -0.69643175811996  -15.28090917087993    1.11173890091020
O          -0.70511758322129  -16.03252558309196    2.06792021912675
O          -0.41350737118404  -14.09616701591538    1.16564632588528
C          -1.07726874761127  -17.24751727480210   -0.38119572052967
C          -1.30941056530983  -17.46091835499291   -1.70443518539031
C          -1.49737576985979  -16.19635323446825   -2.35450772245208
C          -2.00768022910020  -16.00813871572383   -3.61861319004055
C          -2.72356275693725  -14.85308288405290   -4.12211063096866
C          -3.17602258775114  -15.11902307895151   -5.36735575937375
C          -2.73119216107200  -16.44653091821787   -5.73137425323911
N          -2.87017821657242  -17.01701328344628   -7.00696517202435
O          -3.56818329206799  -16.44680498531037   -7.81879431382834
O          -2.24718791527373  -18.05001228427292   -7.23354034025454
C          -2.05071479846538  -17.01624619729014   -4.67754792030803
C          -1.45850240218168  -18.32815875992097   -4.73754339451933
C          -0.15633088363729  -18.58971643555973   -4.55024158568592
C           0.45379475530480  -19.86484684930154   -4.78857082750560
C           0.02173153681874  -21.07918913382914   -5.30479985177307
C          -1.29354676794285  -21.60375137234301   -5.75682140890330
O          -1.68780072284637  -22.66939605823775   -5.37035675046012
O          -2.01221284216457  -20.87731402710218   -6.61557194784162
C           1.18541850458550  -21.88990457764961   -5.22877188350815
N           2.19240424446378  -21.22171718536453   -4.74865615906688
O           1.75766806370877  -19.97981526311592   -4.46912424563906
H           1.55259610493963    2.43723080206029   -3.67709565164886
H           0.78434567702114   -1.03058648531646   -1.02380409066030
H          -0.69145465137472   -2.25512398575245   -2.27519153631802
H           3.08443147720884   -3.10052082318754   -4.20724641753048
H           0.35561752583593   -7.05795214391748   -2.79625151968915
H          -3.21671904613406   -6.20111109562904   -0.49483656259665
H          -3.54536442314615   -9.62181221836519    1.04278344930157
H          -3.83585711279320   -8.05253559939993    0.27570274133196
H          -1.39747793323219   -8.82279064329524    1.97517292552288
H          -2.72261479348970   -7.77854998687303    2.49200293648128
H          -1.61967158115903   -7.23951554233853    1.22278452473330
H           0.72409506319649  -10.74602544256281   -5.57101539229635
H           0.10048711057778  -12.38615907552244   -5.27768088365159
H           2.57851519903152  -11.11380542422300   -3.99206459745278
H           2.58982135172358  -12.37178747923415   -5.22863682303241
H           1.98483249814176  -12.73302695619563   -3.60661276101780
H          -0.41098387178006  -13.69302161058918   -3.48945758605600
H          -1.37846594735382  -13.16213936177191   -0.62394595149880
H          -0.93933411813166  -17.98421657074956    0.38765609255534
H          -1.44438058708675  -18.41296114307711   -2.17759258005676
H          -2.93449529632854  -13.97689047546104   -3.54214580658809
H          -3.76243012602098  -14.49224089646932   -6.01100745379154
H          -2.13176124846243  -19.11195489378253   -5.05857964567327
H           0.53060787014064  -17.81214373138550   -4.24484591510865
H          -1.63970957517875  -20.03085908986947   -6.91300067566668
H           1.28653877962935  -22.91426818751735   -5.52279659125470
