70
 SCF done       -129.203331060589          0.000496505065
C           0.54832690029858    1.24297728298828    3.13772424216735
C           1.73259069705723    0.56157551251386    3.09264907237385
C           2.77611543762117    0.59991037911847    4.14524876509833
O           3.94878166360717    0.52762126443495    3.90594994295243
O           2.33212607587483    0.75152690689149    5.40708885192006
C           1.92727024579847   -0.08980009100089    1.83234762471158
C           0.88340958071779    0.12985677648169    0.98405961004227
S          -0.34013459751444    1.11315862857947    1.67950253213233
C           3.07721723308251   -0.92407125054058    1.50961589507022
C           3.51862906177418   -1.95841390561876    2.34547661737091
N           4.53498157060639   -2.72331964588710    2.03631123061592
C           5.16111483308049   -2.49357028474250    0.88222918072855
N           4.82910437494688   -1.53190412665777    0.01953313452924
C           3.80694505386050   -0.76410902608278    0.33226707009824
C           6.25530584548514   -3.38913918455530    0.57280933108394
N           7.27948481835350   -3.11963110167018   -0.29459292967504
C           7.47326790899616   -1.93184523382984   -1.08908686840361
C           6.74461256453838   -2.03231861897202   -2.42586033818035
C           8.19380868324338   -4.19462745438857   -0.36945988012481
O           9.18903822670426   -4.17844086062543   -1.06251176737602
C           7.64720827244032   -5.18112521760758    0.53246368266812
C           6.45521206974049   -4.65237254205361    1.10096840862954
C           5.89006329423577   -5.67459964502226    1.96023661095200
O           4.89855567612989   -5.72574400159045    2.64888987157895
N           6.79912152929119   -6.75952421433015    1.84924438751175
C           6.57616974132407   -7.95605998701614    2.62509668003090
C           5.64911538924344   -8.93356925677028    1.90525066248350
C           7.83394189824217   -6.47657932693306    0.99446236631490
C           8.92619607140260   -7.31126676620002    0.60265640143617
C           9.01768404563977   -8.65249874668880    0.64979360917263
C          10.18093943367159   -9.36650607116949    0.16129217173069
N          11.27127751518747   -8.67700325532098   -0.18735881006031
C          12.30275289053657   -9.37160197457990   -0.62507760815762
C          12.27988803027364  -10.75380004071853   -0.73850289581788
C          11.09281963202178  -11.39396350919816   -0.35915917051133
N          10.05983609930378  -10.68692845099248    0.09586799544925
C          10.93540690254392  -12.83019014983468   -0.45842562003347
C           9.78658256413508  -13.44659426289523   -0.13016537592399
C           9.55971933753847  -14.85003201373731   -0.23025486882280
C           8.39811764360294  -15.54529994941084    0.07655404875057
C           7.17859526440373  -14.89685490096198    0.60885770425960
O           7.15849982295634  -13.82337887464726    1.14741101917016
O           6.03673125698021  -15.59639172459914    0.45644435889902
C           8.52303991856653  -16.93792938661750   -0.16792394518470
C           9.74406656590991  -17.28328893149841   -0.64861522427808
S          10.78117594348458  -15.93034485797674   -0.83507252784083
H           0.16234786725071    1.86271269066548    3.92508003729741
H           1.36841434093508    0.75771042704910    5.46949338741448
H           0.75521290971731   -0.25488542023430   -0.00810878064258
H           3.02448665573975   -2.18084739223912    3.28219227444497
H           3.56365443166237    0.01609297156250   -0.37892281210455
H           8.55045730428041   -1.84962322482614   -1.26078039421639
H           7.11744681817378   -1.06546576975344   -0.52972686312335
H           7.08286832768028   -2.91182425015328   -2.96826325291015
H           6.95240990353864   -1.15026989228611   -3.02476501110098
H           5.67341821376902   -2.10189550717998   -2.25800182547581
H           6.09726910768439   -7.63693978279875    3.55621145755855
H           7.53886975333467   -8.41383459543004    2.85924630546192
H           4.66609164434671   -8.48401419459168    1.79028254543310
H           5.55148665096441   -9.84715149096304    2.48494752487220
H           6.03042098695122   -9.18488729916085    0.91817653939738
H           9.74940876132136   -6.76756393065050    0.15486025719529
H           8.22712114843575   -9.29871063466980    0.99475090144067
H          13.17813215904854   -8.79448115640081   -0.89654109304256
H          13.12883217316158  -11.30927048940923   -1.10284330635598
H          11.78753797974503  -13.38935005339804   -0.82427032981597
H           8.96374837267517  -12.85392600438167    0.24585309234195
H           6.16429854420995  -16.42037792828037   -0.03062886754465
H           7.76081183655037  -17.67113878123721    0.03814437409308
H          10.09928112179871  -18.26167619922993   -0.90433141021478
