92
 SCF done       -177.109919611175          0.000919936296
C          -0.11555184262081    1.18942008279619    3.45069006837866
C           0.90202016660641    0.35540997183034    3.08962559130837
C           0.94786672083455   -0.16552162031075    1.69658219744169
O           0.48773489224180    0.43963878467002    0.77020921824399
O           1.46885325225436   -1.39294695667300    1.53470647587869
C           1.74806384889051    0.02835085016391    4.20463017500675
C           1.29450165119892    0.62242390311511    5.35663255530597
S          -0.09601946820474    1.58629588778039    5.11459401946198
C           2.97123537103206   -0.73679052573572    4.17630670727134
C           3.89257795289179   -0.83644312555258    3.16492756295981
C           4.96361232496216   -1.68031887705335    3.59393095907747
C           4.63521532649860   -2.09514319611077    4.96997303450865
C           3.45857144194252   -1.50767155582713    5.31151362750459
C           5.42713202879425   -2.85770649050913    5.83781530437327
N           6.05860836380045   -3.43609834774555    6.60271866644401
C           6.09037920690703   -2.03557171773484    2.89143814062298
C           7.06931362320188   -2.99442127303261    3.27031341529014
C           8.07506473305140   -3.02048428284952    2.32204688025026
C           7.73556540221223   -2.04816935590794    1.29153787306596
C           6.54308547101276   -1.47770130728320    1.60584203659392
C           5.90824297350077   -0.48228822451483    0.85264854712648
N           5.42309257931314    0.34545350262990    0.22250653022031
C           9.19617140500491   -3.88502131612226    2.41325123627766
N          10.41315739087909   -3.76008113528451    1.79030962586277
C          10.88706199859191   -2.68218276813957    0.95252819512175
C          11.00832919154895   -1.36782730521031    1.71623758245131
C          11.30091904866800   -4.78178740483275    2.17676451800512
O          12.44929868988377   -4.85555586792222    1.78510896658536
C          10.53320860640287   -5.61568734014865    3.07266662558531
C           9.25577390848558   -5.03915349248326    3.20601070828749
C           8.46035795995034   -5.90671910144518    4.05970420366726
O           7.30595282517324   -5.86137706049296    4.41740274283236
N           9.34768413594622   -6.94175856634108    4.41619220031733
C           8.93375231189806   -8.00631582280504    5.30102545008168
C           9.33327970257843   -7.71971028567783    6.74592412396145
C          10.58260437069580   -6.78432617697188    3.85012663634745
C          11.65857270892855   -7.67361784395915    4.07078854895542
C          12.86900854090570   -7.51979846929847    3.46453280317386
C          13.98697870640129   -8.38780649747342    3.55916001866381
C          14.03496016148649   -9.77848435222618    3.62263168464835
N          12.99876472061356  -10.73133021292914    3.68514291358756
O          13.26122784109948  -11.84953086328567    3.27982118895821
O          11.91039547796293  -10.41687575035691    4.14130389238497
C          15.38923978192434  -10.22002157598947    3.40787058018979
C          16.19303312305513   -9.13737334741061    3.30371912014817
C          15.39755899530125   -7.94445246445645    3.44500379282410
C          15.88760438002083   -6.67050261187446    3.61617370356274
C          15.17810497743296   -5.41643584959113    3.61613914088218
C          16.07435015488991   -4.40652472803020    3.57005238581859
C          17.41280380594872   -4.95737054528975    3.60530580886360
N          18.52952184122859   -4.11571495366318    3.78554672549777
O          18.29670876368656   -2.92931591305721    3.94245611205842
O          19.64889895972962   -4.59778250614198    3.81581235019850
C          17.33372433854971   -6.33300492026365    3.68626879901711
C          18.38116140205563   -7.26588016819456    3.95445606320836
C          19.60297172210904   -7.25564069132178    3.37443320179942
C          20.65393292281194   -8.14141120930217    3.72876070965066
C          21.89992117208156   -8.24449244244198    3.12334994544015
C          22.26763672086031   -7.49228241956148    1.89824089015127
O          21.47110793347545   -7.12684217836379    1.07831721074135
O          23.58040711798218   -7.25551067180168    1.73844026918544
C          22.73974273228993   -9.18100207489739    3.76987618734949
C          22.14214105219056   -9.77738563727674    4.83645204909775
S          20.54894603076932   -9.20956955297591    5.10029592227717
H          -0.88502698124253    1.56579029510585    2.80628491051862
H           1.83038915327176   -1.75994171381247    2.35412549854202
H           1.74680914598750    0.57967381110889    6.32769864573843
H           3.84578338953053   -0.35952500466603    2.20507614579338
H           2.94770654053722   -1.60423845068084    6.25108846727394
H           7.01547203612130   -3.60942046080895    4.14616524408647
H           8.30195570686902   -1.83838270701547    0.40496739607040
H          10.23844916966613   -2.57608934042410    0.07980411626056
H          11.87548704751134   -2.99846837449183    0.60560857380860
H          10.04298322158870   -1.03917516768424    2.09509525964985
H          11.40216388271044   -0.59923059177235    1.05743140665680
H          11.68838076328113   -1.48558963736833    2.55650295841858
H           9.36055469237912   -8.95072658269248    4.95563237951051
H           7.84410122677468   -8.05693098509090    5.22801798345094
H          10.41268901066472   -7.62431631836966    6.84078475672008
H           8.99797061099860   -8.53207019191484    7.38386074372555
H           8.86876776767758   -6.79682007001987    7.08490498902544
H          11.49647460647908   -8.48559978634564    4.75998231132032
H          13.00699577923190   -6.66715384693933    2.81327103925993
H          15.66359077549268  -11.25547997204885    3.33950648349540
H          17.24495745437087   -9.15212002053382    3.10415064549123
H          14.11719112851872   -5.29069696660281    3.60282566835607
H          15.87570749412510   -3.35256727565632    3.53251607907702
H          18.15719936070834   -8.02191364969181    4.69971686204824
H          19.82387684953033   -6.58137114382081    2.56012141046832
H          24.10882605440567   -7.53781112652864    2.49629550629453
H          23.73229158824697   -9.44108971112076    3.44256968058119
H          22.55136887262515  -10.52601703877041    5.48552042007021
