64
 SCF done       -123.539137441781          0.000492427860
C          -2.93062118108618   -6.90065507083825   -4.66819371859406
C          -3.31891511070153   -5.56728433281395   -4.74636771537311
N          -3.10748117885249   -4.73722580981914   -3.74388761340897
C          -2.45986344631834   -5.19342981014848   -2.67162774539104
C          -2.00183225754747   -6.52327284844661   -2.63977033815046
N          -2.26190395593475   -7.36093236524173   -3.61991059360778
C          -2.23220429830001   -4.30078468682436   -1.56339524904446
N          -1.87524915273771   -4.77428458967660   -0.38598008907740
C          -1.76106772144559   -3.70094861501128    0.42827813226800
C          -2.03643508750424   -2.45669561183394   -0.29312390901474
C          -2.05016991739602   -1.31201798688670    0.63707202674724
O          -2.38062049404981   -0.16540537526529    0.43608891648506
C          -1.65142645588447   -1.93888082304619    1.91487788150264
C          -1.50696131283570   -3.40124101070956    1.74630610306967
N          -1.18383609124239   -3.99001059235837    2.92213600986712
C          -1.11374893448566   -3.00821963949575    3.78851703688865
C          -1.40016948852107   -1.70119484261396    3.22679696752588
C          -2.32713553456660   -2.82910965306940   -1.58917629056006
C          -2.56600558797420   -1.95600515448181   -2.67845310981560
C          -2.04721665527773   -0.64526883425668   -2.72935147258610
C          -2.54949157843739    0.11928924092035   -3.82270340746803
N          -2.17706585156537    1.39982881723291   -3.98289606068625
C          -1.35002328097714    1.88080461695307   -3.09537364720401
C          -0.77801778819270    1.09782783600263   -2.05478469759618
C           0.23806342850728    1.67194844263790   -1.13070739868713
N          -1.11981748838016   -0.15681081077987   -1.89836771622175
C          -3.43846909912294   -0.61929237248167   -4.62992006742057
S          -3.58322258698820   -2.25183836844116   -4.02930372309114
C          -4.16667779716688   -0.21734256236498   -5.75350143439592
C          -4.13758959353508    1.04735249273111   -6.28379245893574
C          -4.92974102574074    1.38208792017825   -7.39424646082329
N          -5.78814519447242    0.51104009050167   -7.94271093967982
C          -6.39776036683877    1.15778288054132   -8.93211054941148
C          -5.91498660593958    2.55090339799087   -9.05132671768636
C          -6.62222469134393    3.24012153386373  -10.15503572158307
O          -6.49061430024098    4.38670220042081  -10.53024344517255
C          -7.51639853662428    2.20058191399946  -10.66815504685485
C          -7.35580717523108    0.94950163690362   -9.90493625389525
N          -8.17831894314092   -0.00918071263448  -10.37773245019718
C          -8.83169240278733    0.55857206405987  -11.37183303360708
C          -8.46775353416611    1.93147819106546  -11.60708469126565
C          -4.96755621763934    2.69943637462657   -8.07823190865484
C          -4.15178815903170    3.85158552254882   -7.76406291355716
C          -4.31237768317083    5.07825053673060   -8.43935574469817
N          -3.55839249689682    6.11780649052374   -8.15625923136432
C          -2.63498580470780    5.99369967051964   -7.21655912940428
C          -2.46812066152692    4.78885056750385   -6.54413710977357
N          -3.21730938185583    3.74210381495784   -6.82010739127686
H          -3.15890873651507   -7.61412781954524   -5.44675440775857
H          -3.83203884547261   -5.15904446580950   -5.60543269399527
H          -1.42665114380258   -6.88712521882122   -1.80162505509620
H          -0.86626523101061   -3.20768448734886    4.81662365375223
H          -1.40226498940824   -0.77711124488228    3.77023143019700
H          -1.06898623935904    2.91855732919141   -3.21447108996994
H           0.95741178314566    2.28382784496925   -1.67068678067364
H           0.74795054943959    0.87089003039018   -0.60360981058921
H          -0.26600360270035    2.30024826512033   -0.39681105194405
H          -4.80146453655157   -0.95309372677785   -6.23043995214881
H          -3.50456682300551    1.80815415631385   -5.85337554842958
H          -9.56379631010052   -0.00226923186298  -11.92647954930955
H          -8.87889275575095    2.56887188834731  -12.36457940033503
H          -5.05361621006009    5.21034049656500   -9.21564821020678
H          -2.03013491306250    6.86441514382614   -7.00818559906072
H          -1.72200331590775    4.65301726650683   -5.77349181359197
