51
 SCF done        -93.806542996936          0.000988993004
C           2.28774205914254   -0.35541523726342   -0.52355439590893
C           2.19139026475347   -1.29213306256639    0.49851375568904
N           1.11914506234889   -2.04756879499850    0.64498659312439
C           0.11413792257289   -1.87965743828835   -0.21633097232532
C           0.20381601019924   -0.89995024614906   -1.21199690802029
N           1.28388175551786   -0.15625651956686   -1.36439998789974
C          -1.05951722434202   -2.73781208662713   -0.03844175123564
C          -1.93636033949589   -3.02802094090531   -1.07824382845974
C          -3.03410038802642   -3.85375923676592   -0.83812620761133
C          -3.20181297504164   -4.33226542011090    0.46845146898047
N          -2.38142883266545   -4.05233057282561    1.45828722120485
C          -1.33673667144671   -3.28419497800900    1.21850043200501
C          -3.97133058245176   -4.21476254812625   -1.87805859207540
S          -5.61300445404458   -4.57679832937211   -1.46332542610574
C          -6.03728335237024   -4.87677636031397   -3.11883655418378
C          -4.94155323616314   -4.71413427125905   -3.94267915589527
C          -3.76206449505627   -4.35270664188440   -3.23318896573843
S          -2.15392120345389   -4.17816057657005   -3.94975211741128
C          -2.28615165487329   -5.32970305208219   -5.36798591032271
C          -2.91998800239283   -4.51749883047594   -6.46265912713820
O          -2.32709641986111   -4.11952678479809   -7.42841581410293
C          -4.36994362876792   -4.13281948179658   -6.18982700830736
O          -5.04262765391051   -4.97509550534811   -5.28004421827127
C          -7.40090762210093   -5.23087752149663   -3.45429983645718
C          -8.27992490897675   -5.66131193954943   -2.46125284521590
C          -9.59724855887954   -5.97236424726247   -2.78200605319431
C          -9.99339699053187   -5.80165218865606   -4.11055357157677
N          -9.16889346421620   -5.40068763368475   -5.05898829178409
C          -7.91492989365671   -5.13755509703419   -4.75532452451597
C         -10.50805491516276   -6.44878261776706   -1.73889316451048
C         -11.66482325159463   -7.18861058394766   -2.01157505209811
N         -12.48475826622907   -7.57979528631694   -1.05368567376501
C         -12.16476632672353   -7.26567241266850    0.19294057328957
C         -10.99306993382648   -6.57582522497501    0.47988373545042
N         -10.18018207894936   -6.16713889187222   -0.47610498373405
H           3.16949672943242    0.25146124510595   -0.67255938603747
H           2.98733073617710   -1.44841062580373    1.21383597459599
H          -0.60995449480214   -0.69429634461906   -1.89320858545102
H          -1.77509703499978   -2.61811547863208   -2.06367748906622
H          -4.03492647026350   -4.97916219346011    0.71154036092055
H          -0.68622203720717   -3.07661257359097    2.05584638676159
H          -2.87896236143722   -6.19331699389207   -5.07245131036808
H          -1.26985345744444   -5.62041663354208   -5.62797965772329
H          -4.92602523411244   -4.19796470858108   -7.13017858207717
H          -4.38779933955283   -3.08425519189780   -5.85991991747794
H          -7.95108193852811   -5.76524080854191   -1.43724250663792
H         -11.01235485539221   -5.97623073382491   -4.42694118330816
H          -7.29461640456491   -4.82593809336188   -5.58095690638110
H         -11.93403061619888   -7.48774635994176   -3.01493338053408
H         -12.85468866084884   -7.58150638498919    0.96239039036033
H         -10.69657030957988   -6.33896755909381    1.49278295054474
