70
 SCF done       -118.653078802309          0.000586111532
C           2.57825863814255    0.04642154777109    1.78864161127827
C           2.39049714711731    0.37105665623573    0.51417057744193
C           2.95874481341558    1.51774946339449   -0.17863114757355
C           2.64036609300767    1.72530662858869   -1.51710471452564
C           3.15179213870107    2.80462055977198   -2.22239712178796
N           2.69690311751767    2.96297572410757   -3.57534750381374
O           2.29218611345873    1.97367441567109   -4.15047173754465
O           2.72693840374349    4.07427496420717   -4.06842828995689
C           4.03369370741083    3.72569803706866   -1.62445801059199
C           4.34180703951273    3.50191837334177   -0.27491951931342
C           3.81821274025744    2.44257340953434    0.42852177116146
C           4.66020134702841    4.80087046448427   -2.36098153649299
C           5.06022426589947    5.95131595410054   -1.78045613363153
C           5.72984174253638    7.07623296950299   -2.34224052399053
N           6.12785015844263    7.33716463188743   -3.63286105715108
C           5.89765531989195    6.56973649789265   -4.83417896843608
C           4.46317145403558    6.69604204641051   -5.33957176689489
C           6.79518862444927    8.58152473683324   -3.72957332746334
O           7.23941144592865    9.02581354299714   -4.76826127348934
C           6.80023940399072    9.09386313772882   -2.38108681635281
C           6.13892186634288    8.15211963906325   -1.56035378226239
C           6.15568841596853    8.65787806926739   -0.20958692966073
O           5.71839996555410    8.21552592635764    0.83297587700004
N           6.83385349075341    9.89590339262623   -0.30559895977838
C           7.03524885478059   10.68499046775333    0.88486679886656
C           8.41480183054220   10.45230575293681    1.49820393485998
C           7.23085160630661   10.15946809050128   -1.59780933270385
C           7.93305600940962   11.26866948228197   -2.14828468027969
C           8.50687801973977   12.32744550829127   -1.53730751977484
C           9.20228128788014   13.39625297704474   -2.21328679225626
C           9.80624494028519   14.39304570723685   -1.44762484584144
C          10.47958901685660   15.45284568198751   -2.03448302135686
N          11.01796846226326   16.43995344838319   -1.13728922469820
O          11.24582389172309   16.08678871019809    0.00287740116263
O          11.20056684594157   17.56654374966384   -1.55060840267872
C          10.59591709223951   15.56783118843916   -3.43365186002194
C           9.98930047534608   14.55124002002874   -4.18838236035776
C           9.31130532192364   13.50686232675816   -3.60947966465641
C          11.34453899847953   16.61919182683821   -4.08313195567692
C          11.09632256068072   17.07948902176953   -5.32182126575351
C          11.87043243018604   18.12149946508181   -5.93997708424132
C          11.60650704884430   18.60903491897014   -7.15126744067937
H           2.11491949578774   -0.82680776287716    2.21359715059620
H           3.19070598786822    0.62631222289752    2.45743748173444
H           1.75979654866912   -0.25712174413066   -0.10190005141875
H           1.96928303705375    1.05243895504624   -2.03148473962208
H           5.03172680736754    4.17039212708798    0.21567009737360
H           4.08710132673419    2.32190067939420    1.46573932760042
H           4.78275219430186    4.64827092653135   -3.42051023150735
H           4.85815704704564    6.10254303296560   -0.72696915948677
H           6.17366918220638    5.52569914396171   -4.66625006084103
H           6.58029923487139    6.99060252129503   -5.57965391586935
H           3.74664329265482    6.29444934548527   -4.62836404665928
H           4.35881269845982    6.15031933469363   -6.27306129318580
H           4.22831989851085    7.74198828668795   -5.52148861348278
H           6.27011691443912   10.35510479245198    1.59477620681029
H           6.86618420875873   11.73989382427481    0.65683546943800
H           8.50494469555077    9.41516087900964    1.81131543688642
H           8.54453420931951   11.08974349330625    2.36863847403108
H           9.20674496779691   10.66437751935271    0.78317573356975
H           8.00394504665665   11.18239541568086   -3.22479901869674
H           8.48851043278120   12.42328827795369   -0.46289818108405
H           9.75085877588032   14.36276930316720   -0.36865222951983
H          10.08364303702010   14.58484778986301   -5.26245924812042
H           8.86362865853804   12.75958982929024   -4.24511360143300
H          12.13800782903594   17.08408134564495   -3.51430199165555
H          10.26168578819492   16.69909514502158   -5.89585734590989
H          12.70112539139872   18.50918446125845   -5.36551060577189
H          10.78249127015946   18.24074436392943   -7.74061005088254
H          12.20255987642122   19.38739735770375   -7.59450439296307
