71
 SCF done       -125.335447779003          0.000946350796
C          -4.19429357985716   -0.83457722651115   -3.12421919521090
S          -3.01538949130568    0.42095628749685   -3.22502671402346
C          -3.89785107335846    1.48131668762041   -2.16197275990901
C          -5.07176702624309    0.86144427258484   -1.75281359937950
C          -5.22202785147060   -0.44984720164674   -2.30875754986734
N          -6.40119635325400   -0.92594359174268   -1.82467915658771
N          -6.99335860076603   -0.02409742687206   -1.01904862886028
C          -6.23324287627306    1.03731958285142   -0.95853594654275
C          -3.42477565236754    2.76611727822192   -1.80942711066491
O          -4.14259635972734    3.52488511627399   -0.95640540585432
C          -3.48303006673904    4.70313018969363   -0.77418598267850
C          -2.32282830493820    4.70306294950548   -1.52231411936701
C          -2.27526214353980    3.46160143514230   -2.19233232797601
C          -1.27642400320859    3.02464280292391   -3.06903871857076
N          -0.44575087976024    2.69090354761892   -3.78734003841431
C          -4.06053567219863    5.66703098641373    0.09591023741165
C          -3.51288184364405    6.87883497388455    0.36314172441801
C          -4.06854320219614    7.85388235699935    1.22535214752876
C          -3.51271655095789    9.08453235741628    1.48679493140737
C          -4.35518460857422    9.76906246388560    2.38673897940203
N          -4.44748187302450   10.94329765040172    3.04947266391244
C          -5.59949285733219   10.93495319296759    3.80767243796286
C          -6.24811632521130    9.70328706880142    3.60370978616414
C          -5.46936345837342    8.98087000943115    2.71795694079377
C          -5.36662563947193    7.68433914131794    1.99261646837091
C          -5.94247761655763   12.04488921448185    4.61419542873595
C          -7.04742194477595   12.14046299706947    5.40141574748718
C          -7.37232511388510   13.24941454067245    6.21982110741987
C          -6.67849044210547   14.42634219683833    6.38971430212180
C          -7.38012115455483   15.22196406655236    7.31881941038773
N          -7.29700060321453   16.41591880609226    7.94227858166276
C          -8.38423107560615   16.55292772128974    8.78399102662761
C          -9.17117697047436   15.39055421356763    8.67286488909069
C          -8.54261366607885   14.56575403565502    7.76078548104365
C          -8.62473779439564   13.24697713988716    7.07796892697514
C          -8.54914381074432   17.71061956743703    9.57476095679282
C          -9.61835740290373   17.95741237085945   10.37945025313409
C          -9.79822493261869   19.10847587856225   11.18462119849654
S         -11.41922122617272   19.52751535022649   11.66211161092253
C         -10.83293888379476   20.95963711745766   12.43836899630780
N         -11.74211776864147   21.80253660067121   13.07378743270843
O         -11.30562549228741   22.81322619853993   13.60347526999632
O         -12.91890933323545   21.47179414793357   13.05704687350769
C          -9.46755520981661   21.09402638011605   12.34986272871595
C          -8.86079101940928   20.04212464475103   11.65274370506038
C          -7.41970490855121   19.88820137281536   11.54308172906912
C          -6.55732520886352   20.89675566531449   11.50771172061491
H          -4.04739707412843   -1.74687370118055   -3.66379800451130
H          -6.84189585526047   -1.81333701496824   -1.99332471078512
H          -6.51819377127074    1.88400411127537   -0.36859443171990
H          -1.59280444459780    5.48272235841276   -1.59048681917357
H          -4.99471555883719    5.37266647394489    0.55183750392522
H          -2.57597520863863    7.14288563270076   -0.10857254744293
H          -2.59285777263264    9.45527246799780    1.07142156204321
H          -3.79439608334862   11.70850197455522    3.01402398141666
H          -7.17055471476261    9.40580831084800    4.06113095333380
H          -6.20670685819608    7.52034423959341    1.31589858503404
H          -5.31482775195767    6.83312252502692    2.67357912656773
H          -5.24746206506962   12.87458910704973    4.58856223360428
H          -7.74086527775239   11.31117859389870    5.42271279895286
H          -5.75983007820275   14.70019857258106    5.90483690339593
H          -6.57688922867974   17.11003548028426    7.82834905918409
H         -10.08003055177454   15.20510479201024    9.20948208983985
H          -9.51986457345314   13.15185006716920    6.45991133863182
H          -8.61893353647400   12.41026490707558    7.77907553891859
H          -7.77116669423309   18.45779320021435    9.49041726578938
H         -10.44305459203348   17.25885383156656   10.37357740619482
H          -8.94070079472818   21.91147310971216   12.80750233146829
H          -7.06323240025218   18.86614461833220   11.52435241852664
H          -6.88013663376616   21.92363020719231   11.50260143238471
H          -5.49497060746059   20.72869100323834   11.46738754403082
