62
 SCF done       -122.644721474559          0.000559071714
C          -1.72397257532833    0.29680321771529   -2.55150090860724
S          -0.96318350183278    1.73994547251301   -3.10874482820219
C          -1.84438013811695    2.75757000234368   -2.00439881020531
C          -2.70042689581483    1.98044053173560   -1.23365260710399
C          -2.61770496954164    0.58810502693555   -1.55809138566993
N          -3.49949704974574   -0.03886707198774   -0.73346401144602
N          -4.11989874241251    0.84270000968105    0.07146926951485
C          -3.66945686641036    2.03908291103593   -0.20059521180298
C          -1.66024742924867    4.15811049232917   -1.94822468251489
O          -2.37272360125800    4.87963866497990   -1.05984571535266
C          -2.01460686541352    6.18668162272736   -1.19155750270759
C          -1.05919269209474    6.30889295068429   -2.18004142165156
C          -0.82326658730084    5.00847098397378   -2.67556721923826
C           0.06825233273000    4.64514117267928   -3.69093792201128
N           0.80417000302347    4.36808623621453   -4.52688706746487
C          -2.60631011650564    7.18278587120396   -0.36935726635845
C          -3.55513223326097    6.91907610192221    0.56385452924954
C          -4.16661800596298    7.87002363189674    1.41887701688102
C          -3.92528405458575    9.22131008490206    1.51009556426198
C          -4.76385782203379    9.75083112493441    2.51275687245255
N          -5.05301667806282   10.91914557575732    3.12150175585845
C          -6.02383343846283   10.69128541655956    4.07701298273246
C          -6.34931936120965    9.31881128600983    4.05401320245322
C          -5.56236256007506    8.73880705419805    3.08069072674695
C          -5.23402210076540    7.45208532521376    2.41246170213553
C          -6.51367595327295   11.73507229332799    4.88311607675976
C          -7.46541715254506   11.60710901616742    5.85278917529792
C          -7.90247379224630   12.68427534791558    6.64075434037353
C          -8.83302984222667   12.73971157680330    7.65775051389923
C          -8.88143596476304   14.08822764549234    8.13368694179190
C          -7.93174477498791   14.83081804316148    7.35802277150819
O          -7.58439130485627   15.99902002540930    7.38274928521649
O          -7.37424693229700   13.94644801123482    6.46737722416667
C          -9.81413439397130   14.12214441372038    9.16194850983257
O         -10.33086513151021   12.87695776602295    9.34351756605992
C          -9.76640157426791   11.96755294169014    8.43894959805698
O         -10.08472978143799   10.81071614277823    8.42594756820670
C         -10.25588278111618   15.17100638840790    9.97461307618798
S         -11.39980454545112   14.91982016736942   11.29975926139659
C          -9.90954086184359   16.51014834908048    9.92629849519033
N          -9.16457290763235   17.33149638896877    9.16975848575720
C          -9.23647340962650   18.65889596077793    9.74116727187876
O         -10.14694811085606   18.59491716462144   10.83201663237116
C         -10.54014369692250   17.29275563716380   10.93602389943942
C         -11.36334141233915   16.59950714629346   11.74992794725153
H          -1.46260188164586   -0.64490137470286   -2.98730550643019
H          -3.71955241567617   -1.01733100691072   -0.66658837769321
H          -4.03299465634403    2.89543050274384    0.32861856245698
H          -0.58603275500747    7.21082598669719   -2.51051062210074
H          -2.24789070109708    8.18737199793533   -0.53256709833344
H          -3.88127809713624    5.89336929645729    0.67683097935796
H          -3.21910062496714    9.78070605596273    0.92470818169668
H          -4.64266624594120   11.81923639093486    2.93342691935407
H          -7.07339489625379    8.84657345560677    4.68694960199381
H          -6.09398083059622    7.01346556929166    1.90250291257413
H          -4.85049185394148    6.70492349567219    3.10989599474142
H          -6.09211858237774   12.71913820274142    4.72003268041482
H          -7.93049620034580   10.65784165420482    6.06691283444094
H          -8.48952270838904   17.02701237971608    8.46269461403526
H          -9.61000951292993   19.38797835413144    9.00557913897458
H          -8.25423468095547   18.99872986407538   10.10914529131125
H         -11.94943708254160   16.94182505287876   12.57696219061568
