63
 SCF done       -115.289622726611          0.000474709759
C           1.53628325957597    2.02048131966327   -1.88108530785472
S          -0.13118121870890    1.63673659431749   -2.10062156943369
C          -0.67520994626101    2.93687800287534   -1.07838710240985
C           0.42052538792877    3.63785450765148   -0.59071539093080
C           1.66482190437256    3.10314084800234   -1.05610422612786
N           2.63423979173808    3.87974882248630   -0.50078607197706
N           2.09875472168346    4.84702900850441    0.26778224789532
C           0.79766688715378    4.72852495408299    0.23295629765531
C          -2.04425434508059    3.17933610712864   -0.82092014837066
O          -2.39119225768651    4.21202410730189   -0.02565136431949
C          -3.74833487327064    4.22914505946863    0.07785211313289
C          -4.28377504651474    3.19380713840604   -0.66041208882153
C          -3.19501019582199    2.51218550978928   -1.24700313372039
C          -3.25899237178888    1.39662162762044   -2.08860982190604
N          -3.33502065244088    0.48043292703454   -2.77592951252805
C          -4.40122779038796    5.22503940807082    0.85406057917360
C          -3.75023430787592    6.23478910301028    1.48308997894827
C          -4.36698610511590    7.25320655889180    2.24927239152853
C          -3.71319669958752    8.31209944617984    2.83286217949152
C          -4.67069702298269    9.11705065216046    3.48695386091512
N          -4.76659200655938   10.25460173359221    4.20912224188819
C          -6.09112331383501   10.46005903892381    4.53394057051116
C          -6.84631192301850    9.40521483757139    3.99140355209227
C          -5.95696824466468    8.57315254926210    3.33676929774941
C          -5.85647027497275    7.32929568711548    2.52538822056169
C          -6.49544906574934   11.59552964207057    5.27260880025123
C          -7.76778365235732   11.86635814315843    5.66287340676103
C          -8.13111312822189   13.03419819193299    6.37545371778929
O          -7.22467696930439   13.98724901526159    6.68283613935183
C          -7.86630707270851   14.98412196842536    7.35014461598776
C          -9.20354526265379   14.67400784217620    7.48229229949646
C          -9.38542106245955   13.42123266991506    6.85718260771849
C         -10.57374540198805   12.69487806561562    6.73410210449000
N         -11.55026963600301   12.09977658131269    6.63270052657692
C          -7.14960405391701   16.13413718240048    7.78509984517030
C          -5.82601739870040   16.31020010455567    7.56142337172904
C          -5.05703503830570   17.43151787565991    7.95576641544651
S          -3.34645253029464   17.49069109297962    7.57090753945724
C          -3.10580191481514   19.02273332282827    8.29930356032716
C          -4.28051527148224   19.49581235226532    8.82763001363242
C          -5.37971486303486   18.59574914959322    8.63231795892186
N          -6.45519213056845   19.19805364786901    9.20240444541903
N          -6.12490512024572   20.39053425563323    9.73468271868901
C          -4.85355471571010   20.59451401176861    9.53083581865239
H           2.28626588836941    1.43138369000095   -2.36625242613029
H           3.63242942016228    3.81043553097757   -0.59471292915592
H           0.17062875686507    5.40188349326116    0.78003492161540
H          -5.32073423898764    2.95194193407733   -0.77341052563220
H          -5.47586437425293    5.13654190085095    0.90596362964387
H          -2.67337541846526    6.28648919771685    1.38988583583557
H          -2.65449833644358    8.49436054446366    2.78897657763951
H          -4.01344690542397   10.86607726529607    4.47788415543531
H          -7.90869458881644    9.29623946975207    4.07891164266042
H          -6.42907523168651    7.39465087284688    1.59889603060562
H          -6.20194482348509    6.44890943545792    3.06984544356755
H          -5.71875197180633   12.30218261711831    5.53814210888963
H          -8.57573460334325   11.18695966212957    5.43882393235853
H          -9.95744265679567   15.26485961770281    7.96135007112554
H          -7.73666246233430   16.87338959312473    8.30752016046290
H          -5.28837266565397   15.53604764465915    7.03144019375575
H          -2.13374256514702   19.47145615832320    8.29329523462034
H          -7.40498215116236   18.87651340591571    9.26856674144343
H          -4.37914013896643   21.49033730180667    9.87570550217597
