62
 SCF done       -118.975993925063          0.000346530511
C          -0.11795107490321    1.53911247846675   -2.27026449488135
S           0.75365805466307    2.05190439636111   -0.87396220995261
C          -0.52137514166671    3.10842329310567   -0.33527576301925
C          -1.58480923470736    3.05213013203085   -1.22720015387173
C          -1.33728160652696    2.15625777619386   -2.31723126420096
N          -2.45224724571296    2.20017962796920   -3.09523625063173
N          -3.36645255325113    3.04381472010127   -2.58251870939255
C          -2.88437598352696    3.56010939667620   -1.48349213842456
C          -0.42139821318231    3.87382237102456    0.84999302394734
O          -1.44264372136795    4.67975825855910    1.20050247066262
C          -1.11666229789503    5.29204118016578    2.37116580056884
C           0.13212097286573    4.87597917467157    2.78107803935262
C           0.59230874914145    3.96185291683982    1.80725778359406
C           1.81442506618793    3.28134363248767    1.80811264787475
N           2.82199421786601    2.73172714251532    1.83017100352999
C          -2.02081426025295    6.20125219662089    2.98921355656358
C          -3.20949958422096    6.54479091575516    2.44284378643149
C          -4.18267928538302    7.40451161191032    3.01978701388991
S          -5.57144441717043    7.83747419505303    2.06960931978088
C          -6.23472008456738    8.76581279639689    3.36833768952644
C          -5.39564619920068    8.76954114091534    4.48076867579386
C          -4.22851723688085    7.99484330924090    4.28056706811725
O          -3.17639362940705    7.83053317566745    5.13560356516962
C          -3.44194394715702    7.65337914640865    6.51137049148395
C          -4.03120071251980    8.88488824076938    7.19452784360998
C          -5.50595734534617    9.07368637340208    6.84938127401918
O          -5.73224413671557    9.55314660769791    5.54247601749784
C          -7.48695397766399    9.42496003923084    3.24912348159294
O          -8.03080516198266   10.03572693924203    4.31674900604042
C          -9.22991518897581   10.55398674439575    3.94632654101198
C          -9.46565981721392   10.27865030153344    2.61675277839453
C          -8.34633919789554    9.54811707006948    2.15584505146388
C          -8.15171456154161    9.06082977606175    0.85850180924695
N          -8.02665071587260    8.68020319326172   -0.21700109516429
C         -10.03290360163053   11.23862949292021    4.90315313508792
C          -9.64576826309709   11.41274606721994    6.18815884587784
C         -10.39499349838730   12.05463825571256    7.20357682682758
S          -9.72915431221926   12.19366597546695    8.82033888411986
C         -11.10092297782312   13.00265448709676    9.45259145216421
C         -12.05226528558985   13.17384376705933    8.47868984798524
C         -11.65058278359008   12.63829353317059    7.21037832298271
N         -12.68511316488644   12.87867992491022    6.36427639827733
N         -13.69388437494365   13.51436903658951    6.99076600499562
C         -13.35269571242816   13.70270827484412    8.23467196682393
H           0.32233478578813    0.83309829657040   -2.94317464574426
H          -2.64842758850171    1.70784188108712   -3.94922858154453
H          -3.45495476621261    4.26314159740917   -0.91253855088545
H           0.65610196837746    5.18334640031357    3.66273984188390
H          -1.70525720459265    6.61265606983220    3.93362404693873
H          -3.47427161898639    6.13891497037053    1.47559220702420
H          -4.10801139933817    6.79000992312792    6.65823705762190
H          -2.46406634731971    7.41879085011673    6.93949651503405
H          -3.47118099835153    9.77030780811650    6.88723349098300
H          -3.93599725581335    8.76751838416640    8.27425274004964
H          -6.04817137104621    8.12838045193858    7.00362979590879
H          -5.94781861095507    9.84023912368868    7.49084424404898
H         -10.32291280736162   10.55800433076159    2.03917624495132
H         -10.97991594170190   11.60505646831733    4.53892591096107
H          -8.67899118706984   11.02897878705024    6.48421270138072
H         -11.12191496292154   13.29662952324420   10.48192636269858
H         -12.77696632301993   12.64944034881820    5.39015085963093
H         -14.01511492441897   14.19500569918488    8.91678441429312
