65
 SCF done       -125.509246367526          0.000645023576
C          -4.16192069191128   -0.41806908933806    3.30841642045455
S          -2.95531664405576    0.81060331439227    3.39101610888983
C          -3.76930213599902    1.84736651545769    2.24840930164425
C          -4.94067546605405    1.23727563376394    1.82867229082142
C          -5.14651583766054   -0.04392368494313    2.43832999001601
N          -6.31948257397537   -0.51316997244688    1.93325752628736
N          -6.85762958932907    0.36335434573546    1.06436772994595
C          -6.06977158504741    1.40165373423192    0.98261194355966
C          -3.22537144185304    3.09967670428141    1.87320786101106
S          -4.04789663831867    4.14271042106243    0.74163647104373
C          -2.80462503907391    5.37165642244021    0.82593530472599
C          -1.81012815320762    4.94997645736553    1.72242382118123
C          -2.05709351110211    3.68033943218875    2.28642811740372
N          -0.64786416708696    5.63979238235797    2.13530747720620
O          -0.52893435479369    6.82981711763065    1.89307595290505
O           0.18868321777184    4.99593285732611    2.74653124806912
C          -3.01573448009454    6.46674091511930   -0.04230268436006
C          -2.20267320275886    7.52739077847438   -0.31136806940148
C          -2.49860741462671    8.54684125694373   -1.24253167129736
C          -3.62296157192457    8.71406438267571   -2.02509798921236
C          -3.45421780333437    9.88149107910774   -2.79205470790284
N          -4.09668914314020   10.62567430668279   -3.72064616166654
C          -3.29488260855352   11.69191692088880   -4.06233986152239
C          -2.10766479367277   11.61055775183216   -3.31260952997719
C          -2.21118974983098   10.48301309072533   -2.51995008010026
C          -1.51013026889559    9.66929122441792   -1.49463507592233
C          -3.71606820756162   12.64388500530507   -5.02377977944783
C          -2.96852566834014   13.68630716690406   -5.46042865494476
C          -3.39983379564012   14.63874660191081   -6.42360852357370
S          -2.29381515835745   15.86918341052145   -6.98581181398483
C          -3.46857652340752   16.58712562266145   -8.05668771997119
C          -4.67436056126409   15.87244465615116   -7.95047363625887
C          -4.61074110132312   14.79068142500518   -7.04496979984624
N          -5.90106941132798   16.10192310653520   -8.60862901415920
O          -6.06933973778082   17.12273841359441   -9.25939309870848
O          -6.76602345760026   15.25073074454061   -8.48144869781459
C          -2.97237805614505   17.67037261304623   -8.81795329633117
C          -3.60990729792327   18.43948723108453   -9.74083152516608
C          -2.99776674145882   19.48106632765714  -10.46016132446263
S          -1.30387764521534   19.93603564627387  -10.31549958927386
C          -1.42345927851384   21.19827887606694  -11.46835346648827
C          -2.69987290815859   21.29647664147784  -11.96599514065490
C          -3.58225226932939   20.32489718867465  -11.39378570355800
N          -4.79201512508658   20.53025353220744  -11.96288336985351
N          -4.74801533603819   21.54796322461385  -12.84366044146165
C          -3.53236345265255   22.02008297557261  -12.86952538717065
H          -4.05921904226911   -1.30749023337819    3.89424533317538
H          -6.78942037424987   -1.38058704064005    2.12469995698582
H          -6.31311096948303    2.22399354859860    0.34127945875910
H          -1.38262642529042    3.22438620050964    2.98933685325634
H          -3.95722167594772    6.40435611372712   -0.57446042354751
H          -1.26322542630811    7.62301401141024    0.21049452207221
H          -4.48390998507993    8.07165547245791   -2.04717964538853
H          -5.00461450129056   10.44627827355112   -4.11691075992761
H          -1.29437796496974   12.30634654298672   -3.36096854251525
H          -1.31483299056410   10.22608675897579   -0.57639512864093
H          -0.55357456433562    9.27857900598396   -1.84597918902062
H          -4.70875988372215   12.50141708911368   -5.43013119776790
H          -1.96829788266953   13.82199555536420   -5.07644462726485
H          -5.46585646418514   14.16507530745761   -6.86683935126604
H          -1.92893162036196   17.89422561869336   -8.62171594085771
H          -4.65388418253357   18.27438189467454   -9.95885274039036
H          -0.55769731800757   21.78353072318838  -11.70462535456410
H          -5.65640813415040   20.04026814679698  -11.80135502559807
H          -3.27546321292224   22.83998230238402  -13.50843994820967
