84
 SCF done       -179.549091753801          0.000957666749
C          -2.21725140229728   -0.64854751363363    7.72053611353632
N          -2.05920021627818   -1.62092232201375    6.86636691084394
N          -1.16827249017647   -2.54811041325956    6.98556032736581
C          -0.26127971383922   -2.56664036387876    7.94512467651000
C          -0.27770293261434   -1.51124927307951    8.89784891130767
C          -1.33233836765387   -0.54460649790740    8.81320592624592
N          -1.25006001990851    0.36452163312773    9.78541371034216
S           0.03281202542683    0.03256788773048   10.68669341159945
N           0.56157522036465   -1.25742626308652    9.89890435235625
C           0.67765106590476   -3.65133032097384    8.04373521410148
C           0.95490215409283   -4.39629750899175    9.17649960230966
N           0.36923913149540   -4.26436335024796   10.44925139309875
O           0.92702023990305   -4.81292750036458   11.38090963278603
O          -0.66540530162349   -3.62335216276718   10.54787833271337
C           1.89833586351748   -5.42662313511504    8.84381785092501
C           2.14794718742046   -5.36167322053439    7.50861921174762
C           1.41840378522413   -4.25985922526056    6.94934098162516
C           1.47285333218447   -3.77946239850416    5.64877489264666
C           1.29847622267590   -2.43347831459492    5.23808878562412
C           1.68231961491543   -2.32129219028404    3.92986293741805
C           2.08088824532423   -3.59573870409330    3.43524234394367
N           2.50848268064618   -3.71596654755717    2.10686844009331
O           2.30471124118251   -2.76737765216633    1.36886186942583
O           3.08861278519379   -4.73310378301439    1.73671567083767
C           1.91124220261617   -4.55107060640474    4.46603252278407
C           1.88073390032265   -5.94470998580896    4.47821734589823
C           2.35776553702161   -6.80165143760120    3.50568711015311
C           2.27746768568625   -8.18248048293555    3.56183480611685
S           1.46664527753392   -9.11439328285930    4.81177052289819
C           1.90859056846776  -10.66599338016247    4.11499407349743
C           2.66254352894074  -10.45887476437630    2.93294963512672
C           2.84123800300638   -9.08501037816350    2.64286875991601
N           3.55126073063960   -8.96747739953171    1.50092449539669
C           3.83316674411013  -10.23304804506486    1.04292541991886
C           4.55569575764948  -10.44979838136760   -0.14090804853239
N           5.13766763074464  -10.62626460147876   -1.11265346923591
C           3.29886379646118  -11.17999555795437    1.90218076182106
C           1.48678532019312  -11.83687246629087    4.72209969353659
C           1.92957915678243  -13.09036276059374    4.33271652351459
C           1.50500952887753  -14.31008682993408    4.84541257555722
C           2.22913067146360  -15.52201200448646    4.79534838532815
N           3.40772438958248  -15.79178034892823    4.08634455121079
O           3.91601086056835  -16.88883559044961    4.23784823477678
O           3.85631789854733  -14.93033196534372    3.33949107039554
C           1.59901772243661  -16.46904840969112    5.64103297068673
C           0.49037551006592  -15.89561916461345    6.21128071291576
C           0.33436510657182  -14.57839567728610    5.70095316893489
C          -0.81637007129001  -13.80358562054949    5.76317841849823
C          -1.29414841877269  -12.96304494329861    4.70248259438377
C          -2.58093910227567  -12.60857083028727    4.96475442140577
C          -2.95244044308674  -13.15323623740507    6.23682808998479
N          -4.21151582799893  -12.91636139994588    6.81772144545107
O          -4.42567916465395  -13.31765776165799    7.95067982931989
O          -5.03119460636809  -12.31989238198728    6.14098145933042
C          -1.88585982825250  -13.88446831471147    6.75898222789408
C          -1.82747299961977  -14.46333142436404    8.05377255207067
C          -0.69772297634167  -14.66595666918047    8.77303989901684
C          -0.69698179148445  -15.21599103069854   10.09413444298687
N           0.45821729735132  -15.23936846264955   10.74317794849668
N           0.60026658891431  -15.67535740170863   11.95056993810558
C          -0.38663462601761  -16.13056815942920   12.67399261474339
C          -1.68191609427131  -16.18214016668017   12.11936124685408
C          -1.84845319177860  -15.72338843601035   10.76847272510776
N          -3.10557365921437  -15.85287331519185   10.35476513389460
S          -3.98659903410234  -16.46519563769048   11.54848473581684
N          -2.82750181058584  -16.61566263082625   12.64596531010469
H          -3.01763098563881    0.05180106255380    7.54483845187074
H           2.30341541730531   -6.11484153418176    9.56057910075310
H           2.86223312002405   -5.95635562851028    6.97299554447059
H           1.01755903178867   -1.62066039486673    5.87712641033718
H           1.71037460238851   -1.42583776625417    3.33729151113543
H           1.43162303142672   -6.39786380724989    5.35351423633915
H           2.86003852710683   -6.38255145348245    2.64465565418119
H           3.81967055472481   -8.10819700217433    1.04594997950564
H           3.38072617494754  -12.24064141976079    1.77457855442559
H           0.81497737258627  -11.74419518495074    5.56486577755217
H           2.75253417754446  -13.13805291815059    3.63395329047890
H           1.95321195467930  -17.47286582533144    5.78248180853816
H          -0.21813489622597  -16.39301597972627    6.84409408220075
H          -0.75437570495346  -12.76391547506074    3.79723172176479
H          -3.24102554788911  -12.02635086622573    4.35078303864847
H          -2.78250250159783  -14.67843723604917    8.51923718279792
H           0.27407194559011  -14.36636970283709    8.40657107263696
H          -0.16788439338581  -16.45732538406744   13.67765422620877
