87
 SCF done       -175.896234975171          0.000834705790
C           1.33940058672023    0.56372086593095    7.53887683404405
N           0.78711846839441   -0.41004684065062    6.86986794332977
N           1.36919195918613   -1.54190889908022    6.63609149779583
C           2.61997858688821   -1.79845861655431    6.97280054869239
C           3.35876903026398   -0.77809287304944    7.63348584653287
C           2.67091351148930    0.42946916709051    7.98223231584005
N           3.46496446676840    1.28367774284079    8.62922551029299
S           4.92201299751319    0.62766489765892    8.75631548481164
N           4.63880211058519   -0.75363361615518    7.99607800919266
C           3.19644190228533   -3.08966712212466    6.71476348231566
C           3.89555960758079   -3.87432570097668    7.61295582996546
N           4.15391450963852   -3.60286161856881    8.96898136253089
O           4.99830716416526   -4.28173811561964    9.52438377389420
O           3.51234817196266   -2.72223867490594    9.52025264662986
C           4.25055077460702   -5.11749098147046    6.98083179351252
C           3.70886338949870   -5.13370454055546    5.73749842179534
C           3.03501291305749   -3.88505901906284    5.50385415018557
C           2.40893325732514   -3.46739964126475    4.34363266604545
C           2.29901477609823   -2.12995109132000    3.86624547831822
C           1.82897788724582   -2.16215876730632    2.58810293040044
C           1.57232421123888   -3.51807685524140    2.20638339956845
N           1.03393185990872   -3.79206530502939    0.94003730148086
O           0.61522549860235   -2.84388565443927    0.29760116328758
O           1.01744723709046   -4.94253936520515    0.52177301493966
C           1.88225398437834   -4.36074175472061    3.28738444540102
C           1.59614782629079   -5.70162972053747    3.58687459130577
C           1.24352836388298   -6.71325844485258    2.72511071589422
C           0.94188961531824   -8.00181144240910    3.18447833861190
N           0.61658717093544   -9.04962665174178    2.35301583625137
C           0.48102454439234   -8.99185319944228    0.91417639609718
C          -0.82933230242024   -8.33717603122704    0.48837230032737
C           0.37064436648108  -10.22733211699371    3.05862908044867
O           0.07169022481134  -11.28727227713274    2.53908082865857
C           0.56883854290477   -9.86575361300711    4.45095042766413
C           0.91519293490770   -8.50709511060472    4.50124876352805
C           1.11955968974542   -8.14910461963479    5.89274388229875
O           1.43711331604321   -7.10628279325873    6.42723476501680
N           0.87981524580217   -9.33941069407968    6.59791422549972
C           0.93235036335419   -9.37848832413608    8.03992594369597
C          -0.46149059790457   -9.32284402912719    8.65973217500578
C           0.54564218197371  -10.37769602100870    5.76292142770972
C           0.26527930939452  -11.68561951917632    6.18565465135499
C          -0.04521594483015  -12.67452519311250    5.28854581875966
C          -0.32383341367718  -14.00451549675562    5.61115848618341
S          -0.34408403437210  -14.61463717543308    7.23901290012227
C          -0.73745651483789  -16.21104458813386    6.72641204348496
C          -0.85282454623316  -16.29143058178287    5.32560076914371
C          -0.61819807009121  -15.03661127187564    4.68924500167245
C          -0.68551323010627  -14.93035386332784    3.29315110538662
C          -0.97949555318282  -16.05416129493269    2.55081077635825
C          -1.04708656924991  -15.97304583763908    1.13955215704808
N          -1.09977288633570  -15.89994080183634   -0.00228033552696
C          -1.21574053236722  -17.30895576186177    3.18812068747116
C          -1.51521984877691  -18.43804932375467    2.38795636364594
N          -1.75379211335506  -19.35654967124073    1.74693367745516
C          -1.15451923145943  -17.42876347801068    4.55849270444550
C          -0.90073677936973  -17.25007767381836    7.68726528469839
N          -1.21434824356571  -18.47500918610515    7.28473580985155
N          -1.37893606944233  -19.47067830850846    8.11139070101164
C          -1.24759982448268  -19.35060440034551    9.40552562480568
C          -0.91306014777075  -18.10504626004179    9.97674572871870
C          -0.73237851763082  -17.00337864398196    9.08068889815980
N          -0.42020701074593  -15.87804193178686    9.71300929851617
S          -0.36070158333888  -16.18668419681051   11.29657938879866
N          -0.72514480639012  -17.74634782277173   11.24693779522476
H           0.75197702548492    1.45103704173021    7.71185311579913
H           4.83384563397213   -5.87967854861850    7.46025424384781
H           3.84301028248712   -5.89870398231341    4.99838578404790
H           2.63592614834331   -1.25704471082455    4.38813485608772
H           1.67007902362400   -1.32815267899699    1.93037426649481
H           1.65434660960783   -5.94625408679186    4.63947902076038
H           1.20849787212535   -6.52802312438571    1.66331272404970
H           0.50595982856304  -10.02884965132215    0.56832807995578
H           1.33246027434054   -8.45431411942179    0.49030877473168
H          -1.67317942345583   -8.85825590472835    0.93464007340868
H          -0.92222716228806   -8.38742634593367   -0.59233482325412
H          -0.85986215868796   -7.29279884492493    0.78699961061738
H           1.50491411432771   -8.49872995180544    8.34613127153639
H           1.46646308112752  -10.27729066239006    8.35996967585740
H          -0.96049125687543   -8.40186954417826    8.36881443477735
H          -0.38227257528255   -9.34624173138709    9.74279728635544
H          -1.06888693090679  -10.16436150021759    8.33386601036694
H           0.30531880584207  -11.91609699326312    7.24112368005898
H          -0.07744214964895  -12.41986649583805    4.23742243818828
H          -0.50984324807057  -13.98738571954350    2.79800966577458
H          -1.33064935688233  -18.37121288939989    5.05230786809755
H          -1.40500862472061  -20.23573980312575   10.00096105691001
