79
 SCF done       -164.967065985797          0.000863156307
C           1.31522051082732    0.58974235698947   -4.14778105249366
C           0.05182853434777    0.81078884484705   -3.68406764290134
F          -0.51071098263940    2.01975440840580   -3.63188693399490
C          -0.60030601055187   -0.36798837904822   -3.26583069041573
F          -1.84306498776323   -0.37871342441097   -2.78350750720368
C           0.17478841569676   -1.50208560773376   -3.41187913068133
S           1.72413604307466   -1.06815919837260   -4.07924687378452
C          -0.14781774487429   -2.85310992383922   -3.10444368774225
C          -1.31479131887917   -3.35361192764886   -2.57490691489507
C          -1.20414631800692   -4.77105579540203   -2.48605410814009
C           0.14866535669208   -5.11576955345468   -2.96561246620797
C           0.76759659176526   -3.96323953926010   -3.32731187771597
C           0.75468353859657   -6.37884914851376   -2.94938341362960
N           1.31209361783646   -7.38186008259348   -2.90666187959474
C          -2.16392640123612   -5.66925319498719   -2.07438299704001
C          -2.11248580570307   -7.08312638253990   -2.18356283842077
C          -3.26623803887533   -7.62867227681836   -1.64517960150331
C          -4.08984720417274   -6.52739959127672   -1.16726226269753
C          -3.45561970500345   -5.35644972779140   -1.44239505478036
C          -3.95591150529694   -4.08807029124382   -1.12500270775690
N          -4.40315334607972   -3.06939063267264   -0.84100010086307
C          -3.52917218604970   -9.02133228861438   -1.63953770244322
N          -4.42849148426456   -9.70745623200547   -0.86548439596504
C          -5.31619791873461   -9.19179255346757    0.14991355379478
C          -6.69282637959812   -8.86276197524145   -0.42306806043806
C          -4.39090253719368  -11.09532281894522   -1.11694082652916
O          -5.08569226049059  -11.89490243797441   -0.52688018559048
C          -3.38856919935268  -11.24645112219936   -2.14974086633048
C          -2.87341722319108   -9.96966356687271   -2.44044290833609
C          -1.90645503805275  -10.10864107340994   -3.51669938431065
O          -1.25029549898270   -9.30014672824628   -4.13347947551756
N          -1.88265733972997  -11.49083661767627   -3.77791450478884
C          -0.97819554368138  -12.04712202768792   -4.75757625134931
C           0.25998104759113  -12.65693656655842   -4.10656236749675
C          -2.75358266805200  -12.18674940686508   -2.97846469176998
C          -2.91608168041020  -13.58303109716093   -3.05402919734761
C          -3.81320727999321  -14.27666330421313   -2.29339272677363
C          -4.00906186792033  -15.68171332422868   -2.31412208118461
C          -3.23197381538478  -16.63382018787255   -3.02724144112446
C          -3.52253251965072  -18.04697758245183   -2.96193038640324
N          -2.78507105537057  -18.91033858177331   -3.67263973463081
C          -1.79714623169317  -18.48304607516972   -4.41649337681117
C          -1.48521175770924  -17.08740349437855   -4.45278981402976
N          -2.19802246876039  -16.22208522327195   -3.77068864302155
C          -0.39961656655758  -16.59581257761058   -5.21961135213165
N           0.47080338232750  -16.19469952324410   -5.84680521909099
C          -1.03485426896819  -19.40848189992461   -5.17233872952138
N          -0.38936050617293  -20.11781679542129   -5.79805318461109
C          -4.56314164215328  -18.58889658697644   -2.17105946326260
C          -5.36959492132842  -17.64401551109375   -1.50520136286867
C          -5.08383520416881  -16.22732513179375   -1.57099237347206
N          -5.97940242060809  -15.51602184941663   -0.88854348989212
S          -7.06479201070780  -16.50395457871865   -0.25020041047146
N          -6.47363246453891  -17.88422920255545   -0.79683834986828
C          -4.75971751821564  -20.00430502456682   -2.11600143956664
C          -5.48181873230170  -20.76654940107459   -1.21445818471871
F          -6.07870586941699  -20.30470706528915   -0.11682633212269
C          -5.46820620525701  -22.14436382864474   -1.51566540209122
F          -6.10303292646302  -23.05470898153745   -0.76977592769702
C          -4.75210967737816  -22.44317125777997   -2.63447862419768
S          -4.03337388353034  -21.04469373896860   -3.31214105569658
H           2.00954533074104    1.31524369205855   -4.51960982010087
H          -2.18602285407549   -2.79051094012493   -2.30479729096719
H           1.76667900372487   -3.85789110949311   -3.70806020026591
H          -1.31231580676224   -7.63221105069846   -2.63778176882942
H          -5.05936557616760   -6.60562584107686   -0.71517091859624
H          -4.85491793219717   -8.32304170845416    0.62326128089532
H          -5.42397155111519   -9.98386603453432    0.89726455944714
H          -6.61989571555473   -8.15766018047483   -1.24848713333215
H          -7.32325447672659   -8.43517720058894    0.35171877857345
H          -7.16176004445453   -9.77211509778881   -0.79041412451675
H          -0.68118372557808  -11.21407521992564   -5.40040592914127
H          -1.50534124508112  -12.79008336679621   -5.36175970870477
H           0.81518766286998  -11.88997367567799   -3.57236319084511
H           0.90082394837258  -13.08464077983676   -4.87205469919594
H          -0.01363884578727  -13.44290930943529   -3.40623754565441
H          -2.29668937135945  -14.11985324380391   -3.75458904248836
H          -4.46178969509096  -13.74227600115003   -1.60977727481266
H          -4.59097800335266  -23.41226662389016   -3.06097985929694
