86
 SCF done       -173.435038010123          0.000968643892
C          -0.31680787715579    1.40393551961200   -5.63979243999099
C          -1.18455771382616    1.43320053942174   -4.58738199861112
F          -1.54818343995884    2.55598338510871   -3.96620718433134
C          -1.65744391995176    0.15561115453434   -4.22292750059320
F          -2.50982579571245   -0.04485561235476   -3.21891743806210
C          -1.14386284851116   -0.86063137161435   -5.00645294274075
S          -0.06475167041539   -0.19058342380450   -6.19850545303088
C          -1.39093671638566   -2.25895795027440   -4.93020167670023
C          -2.22332966269940   -2.93235598278974   -4.06681000754366
C          -2.12505007106785   -4.32844438571873   -4.33268039271696
C          -1.18184801845969   -4.47351261344570   -5.46089299920903
C          -0.75723195227995   -3.23323909924768   -5.80966760959602
C          -0.85586458952142   -5.65356559324425   -6.14235027175312
N          -0.59775521411047   -6.58334365904759   -6.76440526364749
C          -2.76016874574500   -5.35821528520463   -3.67576348249589
C          -2.52957107927443   -6.75073808337751   -3.83704280145319
C          -3.40258617911365   -7.45716963226905   -3.02681576683821
C          -4.22377210839169   -6.48761481488894   -2.31596077600434
C          -3.82977065197937   -5.23643833856052   -2.67238356206692
C          -4.39920669313357   -4.05515638184916   -2.18085383813977
N          -4.89958175156297   -3.11447382144668   -1.75337616373322
C          -3.40823644020797   -8.87226926581078   -2.94564964687684
N          -4.40332343573465   -9.68812581145441   -2.46749228771981
C          -5.73191533591805   -9.32398026003544   -2.03044534825681
C          -6.57430741404180   -8.74982232459656   -3.16466155537642
C          -4.05783086280289  -11.04914733804013   -2.57526446354770
O          -4.79318358593137  -11.95525930433949   -2.23622575731544
C          -2.72548482918580  -11.04482335116442   -3.13710760190546
C          -2.35832884137284   -9.70605262118694   -3.36104226182781
C          -0.99287530875375   -9.69354078125699   -3.86300491299336
O          -0.23905995403117   -8.79157358163484   -4.14742630598831
N          -0.64484070789354  -11.05530232861877   -3.94100958799769
C           0.63834757872247  -11.46649289764251   -4.46337996873527
C           0.54971257023400  -11.82278720220958   -5.94458939867866
C          -1.65734650053113  -11.87547387331968   -3.52228150968001
C          -1.56656069734654  -13.28203306586026   -3.51720362071777
C          -2.58613948079899  -14.07553122483305   -3.07110193008299
C          -2.59060463356160  -15.48261083854630   -2.93778901214092
C          -1.55933253454646  -16.37450597858752   -2.63784321399386
N          -0.16441275429553  -16.19654437223087   -2.59813066529700
O           0.35274909407350  -15.32033934428019   -3.27532696646517
O           0.46734154191714  -16.96157267511566   -1.89101794187126
C          -2.12733292803866  -17.61282307972422   -2.17831151143321
C          -3.47842316926746  -17.53942509101809   -2.24775022959364
C          -3.84544555670472  -16.26463050590913   -2.80295476540378
C          -5.07810196432396  -15.88447201171251   -3.27919631771909
C          -5.42036368255968  -14.64470549326665   -3.93146435091755
C          -6.76529355307326  -14.53233214890765   -3.97747132897715
C          -7.35513234129773  -15.71788229677470   -3.39406904936440
N          -8.74904172468397  -15.91932226667240   -3.43573381910611
O          -9.24156076777619  -16.82553324609355   -2.78622802989751
O          -9.38859193267474  -15.16210895143903   -4.14511696567985
C          -6.35514072814254  -16.60491995969672   -3.04544645810106
C          -6.45708881101051  -17.98588034724047   -2.69560501257898
C          -7.34473689005056  -18.55544786894870   -1.85146618338513
C          -7.40927326648686  -19.95958187054836   -1.62947779146592
C          -8.23332045620310  -20.62100632759248   -0.74180875877517
F          -9.08122609426214  -19.99301724150854    0.07028276623250
C          -8.07894399828150  -22.02391820625852   -0.76973718962202
F          -8.77376315094305  -22.85773532654150    0.00586814690349
C          -7.14252623454736  -22.43897450047431   -1.66837045553070
S          -6.43619975457284  -21.11903106116220   -2.49470959522350
H           0.17551198536613    2.23566312146446   -6.10102474246296
H          -2.82776133838603   -2.49834454655736   -3.29538172314712
H          -0.07629772207638   -2.98143180337523   -6.60161772479098
H          -1.77967930429631   -7.17665218169803   -4.47321381752620
H          -4.98712087138790   -6.70674627063980   -1.59517848872176
H          -5.67077887041081   -8.62925542889552   -1.18948995400666
H          -6.18306794667708  -10.25382707939452   -1.67082992521143
H          -6.13583888311695   -7.83658935954142   -3.56116232905398
H          -7.57229791961001   -8.52529930402582   -2.79915085104649
H          -6.65602632653302   -9.47357231754215   -3.97209417061229
H           1.01497139260159  -12.31120217937362   -3.88239937778645
H           1.30821762708487  -10.61266312084602   -4.33185412220826
H          -0.13733950784697  -12.65052211815659   -6.10494148734578
H           1.53146503704303  -12.11115499644911   -6.30806539650062
H           0.20569323837922  -10.96338175952089   -6.51514764901367
H          -0.66006559363248  -13.72751686844287   -3.89458000132826
H          -3.49430215752749  -13.58896987810898   -2.73879984046943
H          -1.53136622250665  -18.43759546237563   -1.83561735011524
H          -4.15758238979628  -18.31247218078595   -1.95443044835837
H          -4.72180596582240  -13.93914427510087   -4.33021277550123
H          -7.34860632207331  -13.72863981974748   -4.38374149179337
H          -5.74999662643022  -18.63602859545273   -3.19955676746071
H          -8.04167253444580  -17.96137015525938   -1.28017631191123
H          -6.84214654159928  -23.44496172758200   -1.87967282680416
