84
 SCF done       -145.503065106284          0.000385173518
C          -5.03355178173705   -1.59923696215026   -4.59562519604128
C          -5.06642360338997   -2.95486305195494   -4.77743706799347
C          -4.40396702039363   -3.81019761199413   -3.89313144041078
C          -3.68914783784403   -3.34292109782134   -2.80414145819710
C          -3.63059140494574   -1.92961388004445   -2.60223922038143
N          -2.93046070313887   -1.40242337558976   -1.58015032318604
C          -2.91453584008139   -0.10376111703049   -1.44601760898351
C          -3.60593720712612    0.74429696707667   -2.33246431453702
N          -4.28511474920540    0.27206776549761   -3.34095280853353
C          -4.31454938816260   -1.06714390262629   -3.50839117074128
C          -3.03083980126984   -4.27026420656443   -1.91460156756721
S          -2.98326819476185   -5.97450630286481   -2.30368706867511
C          -2.12397065155585   -6.35329255096341   -0.84699900404493
C          -1.86483014702053   -5.19241254157100   -0.11514504019269
C          -2.39576036934747   -4.03666591385219   -0.72262604027927
C          -1.01357849671297   -5.11439286186134    1.06320930495251
O          -1.00463080170363   -4.20978940138187    1.86141476093657
C          -1.85573495143985   -7.71314552950321   -0.54999612710524
C          -1.65863986177776   -8.21092891682436    0.69929885414420
C          -1.37969800425191   -9.57996431896816    0.93604771602727
N          -1.19730414892107  -10.11500929284200    2.19278696377113
C          -1.18593406827290   -9.39801236061951    3.44460517728109
C           0.13714458070975   -8.67127005166277    3.67348042046033
C          -0.94314369236824  -11.49516753683199    2.14692530001747
O          -0.75321557700561  -12.17452624854537    3.13894383422208
C          -0.98344856815014  -11.82061967722257    0.74103674839707
C          -1.25251228503580  -10.62523101257351    0.02447006293928
C          -1.30546344939384  -10.95278293191408   -1.38089792477771
O          -1.51527836457241  -10.27579452264720   -2.37058516534379
N          -1.06208308030070  -12.33422965091618   -1.42626843220568
C          -0.98555890232783  -13.03621815786874   -2.68392576177489
C           0.45926448448491  -13.28162143667359   -3.11268291045354
C          -0.86410808214284  -12.86746296800681   -0.17081001108235
C          -0.60782509729570  -14.23977148395854    0.06669659075094
C          -0.43162511632215  -14.74065525612930    1.31695672408070
C          -0.17714142784439  -16.10621016841983    1.60590015553490
S          -0.06761691464403  -16.61721390184559    3.27298756971312
C           0.22161385369085  -18.26449239459658    2.82004814513147
C           0.23941463147485  -18.39540479007692    1.42566999989929
C           0.01135016970531  -17.17665878462548    0.76187286313805
C           0.46476882663086  -19.62990963170778    0.69035914977014
O           0.47147686153236  -19.71822137339262   -0.51399986899604
C           0.39347480446550  -19.28201063168842    3.79667282215333
C           0.33083010792720  -19.05890844866765    5.12734926287673
C           0.47762786914570  -20.03722863990993    6.17150545332544
C           0.73424091282814  -21.38151355206722    5.95967269619443
C           0.85955137715871  -22.28472462057441    7.01905761642157
C           0.73239036839840  -21.87366953390998    8.31972288491364
C           0.47256093396405  -20.51699400869925    8.59418009535781
N           0.34625594607051  -20.10951773151458    9.87563800344667
C           0.10519201393989  -18.84418335927334   10.08359171895344
C          -0.02085944550033  -17.92510101090597    9.02250755850648
N           0.09587412053598  -18.29080547419651    7.77419667694978
C           0.34461859167581  -19.59061403067669    7.52274389633718
H          -5.54052257918210   -0.91480683777683   -5.25658951849673
H          -5.61159715570555   -3.38032135412569   -5.60640148936668
H          -4.45662921712334   -4.87615347906568   -4.06332517085227
H          -2.33905268286740    0.28866000877026   -0.61825940394381
H          -3.59444387339858    1.81920959964505   -2.21157660619516
H          -2.28685545871212   -3.05549298357081   -0.29931675287232
H          -0.30528501285161   -5.96264305579584    1.15876311043921
H          -1.85850121349540   -8.39594626469991   -1.39081842248643
H          -1.74997945085159   -7.56252135209992    1.55831138680100
H          -1.32770333321530  -10.15227848717924    4.22395776424251
H          -2.02520510557247   -8.69759456989240    3.47548906456508
H           0.95606601621325   -9.38654197403641    3.67967657395875
H           0.11490076009802   -8.15814434751286    4.63079385785546
H           0.32246271019110   -7.93925047897767    2.89069083571326
H          -1.48049811678908  -12.39338463214717   -3.41755483585115
H          -1.53705549939717  -13.97805949478043   -2.61284279698001
H           0.97817008685223  -12.33277169973810   -3.22465348637890
H           0.47713625243107  -13.80248714785234   -4.06602522470064
H           0.98975046046218  -13.88038445202940   -2.37556473567723
H          -0.56310326460945  -14.89825225996213   -0.78784230614157
H          -0.49101263713834  -14.07222622674934    2.16592602353281
H          -0.00287086802286  -17.11607976982492   -0.31116304388557
H           0.63972599612424  -20.52305836827856    1.31965057625867
H           0.57409620331134  -20.27686711695290    3.41533192394530
H           0.14428276798783  -18.05371230994406    5.48314885627589
H           0.84317718888104  -21.75341744526722    4.95253193985797
H           1.05971757203656  -23.32307304880228    6.79919389131063
H           0.82455168077105  -22.55594555218153    9.14963513834390
H           0.00692007381136  -18.53039544351278   11.11424576040392
H          -0.21922371860277  -16.87720596955957    9.20356359520758
