107
 SCF done       -175.439546201330          0.000387418223
C         -18.43200989281868   12.60905077679241    3.66956292197392
N         -18.55588841179457   13.85882735455122    3.13413411521024
C         -17.64007361386329   14.04571062037260    2.14469974128145
C         -16.90602825584484   12.88671390780983    2.03849097368666
C         -17.41824196328515   11.98291192201121    3.01077317679133
S         -16.47734066277395   10.47438327501898    2.89644575188538
O         -17.29546785383504    9.38494055627944    2.43621819824118
O         -15.70247597869647   10.25611713646203    4.08787238332932
C         -15.44344735010982   11.12799415469422    1.54590481862958
C         -15.82124333420569   12.38779400374884    1.24460464516611
C         -14.42959843700586   10.32442748787184    0.97436232676646
C         -14.16163136714852    9.07340239463724    1.41350444659257
C         -13.15237094282177    8.25973197925817    0.83546188923340
N         -12.39029183737916    8.58658758214330   -0.16872022335695
C         -11.53723893264544    7.60684487240456   -0.47789687506664
C         -11.61726344298637    6.47404414783082    0.30767560725353
S         -12.84592549417490    6.62885018341986    1.48286126444017
C         -10.71893718092954    5.45092363503774   -0.25885991686463
C          -9.65248887145992    6.35605243598274   -0.90246471186241
C         -10.48404053513996    7.50248855602298   -1.56274637316112
C         -11.12176945351775    7.04058048100093   -2.88478462229124
C         -12.18049199030555    8.00287375001889   -3.41102404974032
C          -9.76262260368731    8.85246284558042   -1.69788273176925
C          -8.88829208075607    9.02579775098725   -2.93512151230816
N          -8.77207437502520    5.46549374610085   -1.63171233037442
C          -8.89493483439538    4.11482189289313   -1.11940594273928
S          -9.69257797579861    4.18401520943175    0.54547103140039
C          -7.47133243692769    5.85466922155809   -1.96751758864777
C          -6.77080739936954    5.07077954411768   -2.88361410210944
C          -5.48309061567732    5.42577504528269   -3.28618811673635
C          -4.93461803304931    6.57294839475722   -2.69527104210690
N          -5.58499781721580    7.31730137222700   -1.82698875855830
C          -6.81538362918113    6.98860734484972   -1.47766325299079
C          -4.80614156083533    4.62300138143331   -4.27748953969076
C          -3.63035408814428    4.90734758060388   -4.86683713783477
C          -3.06441050671877    4.07388350629688   -5.87436567875065
N          -3.57073788966995    2.96352716592890   -6.32045700175801
C          -2.82774552234616    2.43954829656620   -7.30047779882229
C          -1.69187331690145    3.15173491422744   -7.63106002586410
S          -1.54049137277738    4.54835105001335   -6.66231236653000
C          -0.91296706986918    2.40213364571794   -8.63635831114200
C          -2.05788773847925    1.62619845718517   -9.29260769679533
C          -2.96947631444095    1.17095217857725   -8.11970983451205
C          -2.39216227679625    0.00269287967664   -7.29886755435026
C          -2.35110985985250   -1.33141083354170   -8.03384850124443
C          -4.40884750252121    0.92365218718715   -8.58591785123520
C          -5.37835395967377    0.62697548044790   -7.44751595866372
N          -1.45290154952028    0.70947509206773  -10.25181898733556
C          -0.18111184781630    1.28091420133545  -10.69996931318068
S          -0.01786206367214    3.01522702475716  -10.09906761023018
C          -2.31880270442499    0.35701071718271  -11.29164554021671
N          -2.26945486367802   -0.90716715200667  -11.82186583115716
C          -3.20652338870635   -1.04813639288455  -12.80366584798408
C          -3.87484537103652    0.14765559871381  -12.90975889024830
C          -3.31072854979878    1.03202807906550  -11.94937463422546
S          -4.09579418660786    2.61291986760652  -12.15298304977577
O          -3.16278902117637    3.56649275641262  -12.68614601601635
O          -4.84128517903093    3.01358560264002  -10.98774710503451
C          -5.19846802362070    1.99603693799806  -13.45413799415747
C          -4.92914645763113    0.70597204302399  -13.71287620489169
C          -6.14580791269808    2.92090739746088  -14.00114213378384
C          -7.01071439046488    2.66510465387743  -14.98125749183294
H         -19.06523255620191   12.26914561709811    4.46335963516361
H         -19.23026446580854   14.54615275263296    3.43064039617895
H         -17.57843963498681   14.96738604186939    1.60194776516249
H         -15.35766023442110   12.98628950602996    0.47560591114455
H         -13.85101708253698   10.73183906569183    0.15482628282622
H         -14.72525594360578    8.65499741781012    2.23407097066785
H         -11.27752514475844    4.88326463257932   -1.01463570476772
H          -9.10634890793255    6.82172860526965   -0.06367129182356
H         -10.32953195022119    6.90526115894214   -3.62183784008938
H         -11.59158311433674    6.06719901719925   -2.73087124521313
H         -11.74692899128739    8.95896283475714   -3.68779648260582
H         -12.94058891651973    8.18158301700227   -2.65451245881429
H         -12.65964538153114    7.57824071600782   -4.29049827497012
H         -10.53322769090447    9.62557215573083   -1.69447371153496
H          -9.15803557937446    9.00886836680480   -0.80129766254247
H          -9.48765289868003    9.09917556821882   -3.83799570662041
H          -8.19140559837574    8.20087578971169   -3.05085990733422
H          -8.31073282376131    9.94249879845555   -2.84077600051910
H          -7.92604901899447    3.62672226950487   -1.01858045337179
H          -9.55069722769858    3.50702533530206   -1.75184210065494
H          -7.23970498449591    4.19168132229421   -3.30266142282522
H          -3.93172406700336    6.90206012102084   -2.92461083257622
H          -7.27619660291394    7.65679348732463   -0.76641296601784
H          -5.31694878688884    3.72160477393282   -4.58922813583710
H          -3.06742895197671    5.79513207606218   -4.62093331707780
H          -0.19611728604358    1.74043005727042   -8.13289005442618
H          -2.65528264372504    2.37105559097420   -9.84815607001160
H          -1.37873904329072    0.26059914568774   -6.98299485851665
H          -2.99273166082817   -0.09444198754127   -6.39345915561430
H          -1.73344275217119   -1.25099405487927   -8.92325849067809
H          -3.34741888305747   -1.65058435342752   -8.32580189544606
H          -1.92714314631318   -2.09317712125564   -7.38267188690513
H          -4.75085132462453    1.81423017533891   -9.11580778724862
H          -4.41046624565783    0.09972328667813   -9.30348358863765
H          -5.18181006804365   -0.34233950656010   -6.99530169036791
H          -6.39628849651741    0.62254354695049   -7.82960419086846
H          -5.29612118491177    1.39555632221993   -6.68452329157445
H          -0.09397543938089    1.28657455881656  -11.78624289985018
H           0.64596738602270    0.71235119146930  -10.26312038917628
H          -1.62781954659723   -1.62204199195704  -11.51804317966078
H          -3.31834877004509   -1.96643852908793  -13.34375667182299
H          -5.44044632244658    0.11137523304633  -14.45351426843672
H          -6.11011726122725    3.89973169786288  -13.54114666611828
H          -7.06452123844764    1.70035911256801  -15.45637232465140
H          -7.69166742458279    3.41710927990545  -15.33839531862146
