79
 SCF done       -148.802130397338          0.000423734642
C          -5.45813787913909   -2.81461803148008   -2.97549477828847
C          -4.62796035535507   -2.41951237190274   -1.89377223151390
C          -3.57288379947192   -1.56098588962162   -2.13189524211012
C          -3.33166633310516   -1.08240303610334   -3.43018884302611
C          -4.17289413722608   -1.48464297605112   -4.50577358606690
C          -5.24240021901645   -2.36638954571806   -4.24308287643379
N          -3.95979639039443   -1.03262392341842   -5.75760780261437
C          -2.95526290565341   -0.21645568488847   -5.93312158472515
C          -2.11971315503435    0.18371835019211   -4.86859292956962
N          -2.29970061325326   -0.23623372600468   -3.64669604340911
C          -4.91690805292325   -2.91510947062382   -0.56669703564787
S          -6.28822342736375   -3.95429685570756   -0.29579281826392
C          -5.97041200106707   -4.07380481440698    1.39661199226172
C          -4.85847578650105   -3.32218127991449    1.73680827787391
C          -4.25498544499531   -2.67430044748609    0.62442043768930
O          -3.16107971248320   -1.89542106060360    0.73319874015027
C          -4.41159916442574   -3.09657282118867    3.04887656667821
N          -4.03478475126529   -2.80191847393485    4.09238836451090
C          -6.83705047751041   -4.79626351860963    2.27018023875230
S          -8.54844157011591   -4.78689130008201    1.96807168077442
C          -8.86182035812482   -5.70820545873781    3.40329518696829
C          -7.69648299171334   -5.99168359534217    4.08859082052322
C          -6.53300926335639   -5.50870041084973    3.41643815524675
C          -5.18489726359036   -5.95056867163869    3.79619798307233
O          -4.18404453846657   -5.67844713481965    3.17108306005060
C          -5.17146349784227   -6.87553655421705    4.98976688470605
C          -6.22896136740035   -6.50608024239082    6.02347923710519
C          -7.62215527150338   -6.55332318736950    5.44130102583801
O          -8.57606065257009   -6.95841189065479    6.07120104370778
C         -10.21127131795595   -6.05320181831056    3.73463079369942
S         -11.49229535346920   -4.89829159448904    3.53267248435455
C         -12.66766051306056   -5.99947746511151    4.17037032687310
C         -12.08782303188841   -7.21094549440368    4.50830305477878
C         -10.68843039590918   -7.23666109708148    4.24369279049333
C          -9.87211463231101   -8.44980927704740    4.44072605567120
O          -8.88053383175733   -8.70631862652339    3.80081214534875
C         -10.48192209614886   -9.35860941106578    5.47601909282948
C         -11.93486995115005   -9.64950011372262    5.10579214118255
C         -12.80380736611440   -8.41679163847992    4.95122801350626
O         -13.99884068167265   -8.46607376790689    5.14059034401823
C         -14.04315576449036   -5.54119973575120    4.24542780493071
C         -14.84349723148966   -5.80024753812607    5.35856608823027
C         -16.15372725746407   -5.34779443503157    5.42710599189630
C         -16.66607845171917   -4.61979021189134    4.37058049975620
C         -15.85351673889318   -4.33388385634701    3.25599496221880
C         -14.55567035940907   -4.77769496728704    3.18533759796466
C         -16.62608021470894   -3.52779120048597    2.27153533416325
O         -16.24720372464990   -3.10011917817376    1.20714727330318
C         -17.96396741958344   -3.36743377040844    2.89900874381073
C         -17.97765159838373   -4.02137648172616    4.14713614447020
C         -19.12562352465852   -4.00630313855832    4.91399678265314
C         -20.24073179834042   -3.33947049846989    4.42495921980284
C         -20.24062970642863   -2.68598309470874    3.18994438383540
C         -19.06925164033085   -2.70669884623562    2.41769195031829
C         -21.45522731300603   -2.01113138458392    2.75314069929763
C         -21.62610348575305   -1.34830100212551    1.61452878284646
H          -6.28013176114071   -3.48797141396896   -2.77684989119945
H          -2.91775996684846   -1.23534617568425   -1.34243552699658
H          -5.87255674196915   -2.66507529982905   -5.06597892074282
H          -2.79119940935046    0.14252035829887   -6.94040873222694
H          -1.29206922015283    0.86124591699762   -5.03213935125116
H          -2.84243205447651   -1.89912846596813    1.64703127703421
H          -5.36279357833813   -7.88636966056085    4.61541521759324
H          -4.17244149343626   -6.86405040507536    5.42786392014786
H          -6.05326506424012   -5.48610227111619    6.37974462068830
H          -6.18583008159253   -7.17527669348599    6.88399491031456
H         -10.43016750838790   -8.84524116806993    6.43865258450927
H          -9.90724979532850  -10.28335405552634    5.53777572917055
H         -12.40167200327671  -10.30114538738290    5.84693911830266
H         -11.96663846296297  -10.17644432854653    4.14595136798387
H         -14.43225326569823   -6.35404677312542    6.18647995678962
H         -16.75313232581320   -5.56391757631607    6.29792393398811
H         -13.94833619807519   -4.55546981738762    2.31987460812602
H         -19.16306680863720   -4.50073280143534    5.87301062223292
H         -21.14339518960871   -3.32413883111469    5.01966440530424
H         -19.02081414207941   -2.21709932765071    1.45811828967957
H         -22.28198836716878   -2.07675056556430    3.45014929691218
H         -20.85013287263288   -1.24299169931557    0.87617955674269
H         -22.56615690725125   -0.88047989056493    1.37804958043181
