69
 SCF done       -150.444102588299          0.000793537781
C          -0.49942160384345   -1.58085194892626    3.83636389626622
N          -0.78573381687887   -1.59669901122549    5.17127888474065
C          -2.06918201669361   -1.19997174400538    5.38773144302899
C          -2.62651033952619   -0.91949087219651    4.16081700960583
C          -1.62045514766885   -1.16585992899998    3.18484215271133
S          -2.32512445714825   -0.80300616013803    1.59040725006123
O          -2.45886940301192   -1.99037839010624    0.79134629861283
O          -1.69118257787260    0.33352916153127    0.98058022151562
C          -3.92831177181909   -0.33442150174293    2.31071379343424
C          -3.88836204758141   -0.46361093159187    3.65293940809052
C          -4.93192532544922    0.08636421573185    1.40336140701430
C          -6.17617550890997    0.49431985474721    1.74473715246477
C          -7.16283945131867    0.94701275695093    0.82644596383356
S          -8.73123205649919    1.41553863494145    1.42098034577517
C          -9.28713672048721    1.89657817056825   -0.15940620551157
C          -8.30605143964146    1.64643438555323   -1.10409197476909
C          -7.10903394479856    1.12042866559957   -0.54809282907929
O          -5.99287328611633    0.84013634329816   -1.25521163050433
C          -8.39210853644503    2.05228210332734   -2.52907697841769
O          -8.81603676077616    3.10888530480385   -2.89938512781321
O          -7.86102495007154    1.16772883880227   -3.40372974524875
C         -10.61575719462595    2.37084003149245   -0.38216537312568
S         -11.40925012741903    2.16187625051597   -1.91641402214724
C         -12.85538523105270    2.93262328415021   -1.36262881354404
C         -12.73718024121112    3.33615079221318   -0.02951395747609
C         -11.45772327206354    3.00232387517847    0.50958759199735
O         -11.12498873766888    3.31829877378310    1.78997989246879
C         -13.81852648971971    3.91555333600762    0.77716637568367
O         -14.88997902059632    4.25823762697961    0.30545326855681
O         -13.62343517813067    4.04635124175926    2.07884845975900
C         -13.89972386090419    2.98147960986143   -2.34287695983938
S         -13.94797761768616    1.64973836454963   -3.47631156204625
C         -15.18238542034016    2.40514230913277   -4.41286589856993
C         -15.55106709581821    3.64452283125898   -3.89066948846492
C         -14.81240151214287    3.95876451490680   -2.70649468941354
O         -14.96120213325727    5.13347771341932   -2.06900023883103
C         -16.57910373082128    4.55627022001546   -4.44971052412655
O         -17.24639549854182    4.29908311389532   -5.43331613294830
O         -16.76610516133445    5.70439095319280   -3.82666522487144
C         -15.61501169983119    1.64207994814430   -5.53978563458087
N         -16.57189955912620    1.98884289407147   -6.45543546407667
C         -16.71650675746105    1.01877621128832   -7.38096099935078
C         -15.83326470197450   -0.00469261464178   -7.07477373751874
C         -15.14071405669047    0.39583053006483   -5.91399099231462
S         -14.01130307835761   -0.90290590597246   -5.47343767083929
O         -14.38781971334457   -1.52174628640807   -4.22966867677129
O         -12.64041029187730   -0.48339124808557   -5.59477508299778
C         -14.51644394074433   -1.92675375512767   -6.88915132195504
C         -15.46704106346223   -1.29368588604285   -7.59774039234859
C         -13.87472248264383   -3.19784759333286   -7.04675464257390
C         -14.12841018494546   -4.08773288764703   -8.00510427920494
H           0.46361119893968   -1.86122559991977    3.46148631904766
H          -0.13666625590965   -1.86543098525585    5.89360407448813
H          -2.48252571386271   -1.14536645094682    6.37487094576141
H          -4.71376346830558   -0.25038723820807    4.31440835896163
H          -4.63244537551087    0.07459045484580    0.36626460728769
H          -6.47637253046818    0.49655563935947    2.78410879223546
H          -6.04510932035149    1.19856860616822   -2.15328484914286
H          -7.76443116044704    0.27561423515984   -3.04158948532890
H         -10.20067278016503    3.09718779891948    1.96809631197829
H         -12.72546838753251    3.78468070934527    2.35164768562782
H         -14.91463716674741    4.95923513370346   -1.08531373569162
H         -16.17441865381248    5.80061184640139   -3.04705541881057
H         -17.06913626238418    2.88160914515622   -6.36867737185631
H         -17.42232371514040    1.11152193629255   -8.18213737720713
H         -15.93391559946466   -1.69189728986686   -8.48465479875040
H         -13.12833671089211   -3.40264620609869   -6.29047310206489
H         -14.86786708240525   -3.90922555843188   -8.76700234124440
H         -13.60301479915676   -5.02494237204884   -8.05318315963765
