90
 SCF done       -162.246159760828          0.000461994184
C           0.11613078337870   -1.54322172948337    1.80997055526778
C          -0.84882536085965   -1.18473856058253    0.82936826299534
C          -0.50198277311120   -0.27895735550084   -0.15413130291045
C           0.78959196220856    0.27553077796561   -0.18009991825014
C           1.74758273636696   -0.09868553980172    0.80300989122331
C           1.37471327118322   -1.02383785841678    1.80064840600323
N           2.99369001573872    0.41667662720660    0.78784544073493
C           3.27315767627743    1.26886570342396   -0.16123767204681
C           2.32152374041470    1.64845835284149   -1.13313867687609
N           1.11017113961198    1.16636848124390   -1.14444853780716
C          -2.16869427773748   -1.77449154487441    0.90292662836503
S          -2.60797714299062   -2.66363245745118    2.34036390962874
C          -4.20171646669515   -3.05760117539941    1.75398283174450
C          -4.36893978201474   -2.50980448467288    0.48994632662950
C          -3.23258514592040   -1.78798537335701    0.01837269567757
C          -3.49920578691168   -1.27064299914499   -1.33009289249692
O          -2.78626271566044   -0.61911803707923   -2.05307759107594
C          -4.90577589358788   -1.71741562151256   -1.68945043286364
C          -5.43542793172122   -2.50260054784253   -0.50596205940146
O          -6.53463696803862   -3.00806396315815   -0.44834238753406
C          -5.02715046198034   -3.84673484481377    2.59311475054681
C          -6.28264236898957   -4.26005945633868    2.27754581674220
C          -7.05193485544764   -5.07700020954885    3.14035351984657
N          -8.30820964400574   -5.53835602324471    2.82027916758887
C          -9.01995907868354   -5.30988291335448    1.58505077503298
C          -8.51993376820439   -6.21692577621670    0.46419810615706
C          -8.84484378410430   -6.34939676697014    3.83144646063779
O          -9.94101745554332   -6.87275328462922    3.76562761659927
C          -7.82638362805297   -6.36297817978983    4.85904442063384
C          -6.74213859823665   -5.57185839952952    4.40756908004338
C          -5.72678372579318   -5.57943714206784    5.43871362318886
O          -4.62901770180589   -5.05908817509547    5.50250868955814
N          -6.26728202812689   -6.38254688264141    6.45375305247284
C          -5.56322705200523   -6.59964008030572    7.69541620643782
C          -6.10578034837903   -5.71894809681596    8.81748066462082
C          -7.51559398140568   -6.86035452236476    6.12528854739146
C          -8.26022710949840   -7.72502470295330    6.96185514553193
C          -9.47229977554097   -8.22345516656884    6.59941816067828
C         -10.23896909930363   -9.12512138287826    7.37661521954057
S         -11.73138645564949   -9.71801778138360    6.68888469429788
C         -12.09660453223867  -10.72983583668861    8.06346471862083
C         -11.09635422260723  -10.58973173174246    9.01505199900627
C         -10.05735295397361   -9.69566468224276    8.63067961135347
C          -9.04812468569407   -9.60700977322746    9.68228620719628
O          -8.02390402624187   -8.96113064216935    9.70297044328509
C          -9.52263406437450  -10.51103613634244   10.80512305626127
C         -10.82851802491512  -11.13513476450969   10.34468618014329
O         -11.48004589606780  -11.92250875120350   10.99152294477995
C         -13.28421664028445  -11.51393331835770    8.00345959620719
C         -13.69904628207098  -12.36510388740799    8.96439621074976
C         -14.88663120821039  -13.18648088200533    8.91871111889427
C         -15.16770150311353  -13.99369717181107   10.05444863234725
C         -16.25932897522676  -14.80729409479409   10.10603451826778
C         -17.14560690215094  -14.86456404782726    9.00979242230726
C         -16.87851409998192  -14.06336196841802    7.86283191531174
C         -15.74723179766475  -13.23303807227497    7.83789471255948
N         -17.70629150994355  -14.09634908959444    6.79365092644590
C         -18.74272569587182  -14.88498067983282    6.86698101076647
C         -19.00624545245531  -15.67725057640599    8.00515075132082
N         -18.22686711629917  -15.66859290936954    9.05302117768300
H          -0.16024974539619   -2.25447516199042    2.57488995770317
H          -1.19064738097124    0.02231802748694   -0.92580230031670
H           2.10859859497868   -1.30172179952512    2.54069344781598
H           4.27576476685117    1.67533545188209   -0.16885199449830
H           2.56899779307403    2.35998155220679   -1.90978423575706
H          -4.90006909616586   -2.32977354806426   -2.59402610742311
H          -5.54200695011181   -0.85565690390541   -1.90409333024914
H          -4.59332091873098   -4.13325856043132    3.54318900861717
H          -6.71822254243164   -3.97120395429323    1.33301120253270
H          -8.92670044927139   -4.26019209770522    1.29668609048644
H         -10.06988765514069   -5.53086096685096    1.79675272256957
H          -7.47556579234104   -6.01481509014449    0.23968678846213
H          -9.10630836135134   -6.04298516167146   -0.43329058634838
H          -8.62264986019011   -7.26030429982716    0.75312473468219
H          -4.51852256625921   -6.34392652870859    7.49744285447032
H          -5.62590412871950   -7.65427145261044    7.97465922661278
H          -6.03628940871979   -4.67033685020317    8.53765324572479
H          -5.52332891746328   -5.87957500607514    9.72000915126507
H          -7.14466608185227   -5.95865450624466    9.02963454361374
H          -7.83085038394476   -8.00370479764490    7.91219108615575
H          -9.90222062058568   -7.94066056702199    5.64647398267935
H          -9.66837363882777   -9.94241841993043   11.72651618200884
H          -8.77971903819483  -11.27957641518439   11.02988080781832
H         -13.85726158996260  -11.38532828320764    7.09495322876725
H         -13.10562307559375  -12.46044617201452    9.86300403723316
H         -14.48561800964350  -13.94886522952737   10.89097348006008
H         -16.47381928689192  -15.42113343243895   10.96685600931490
H         -15.58357233441454  -12.64713029795615    6.94773221218750
H         -19.39911865270896  -14.90618026134950    6.00704690221203
H         -19.87154923888393  -16.32519315762187    8.04860230353908
