80
 SCF done       -169.417387940747          0.000634294936
C          -1.74403323308033    1.48504876181275   -1.65895878692734
C          -1.45013626961618    0.77936910462366   -2.81202723413121
F          -1.30475451829922    1.44029741198578   -3.96403718629967
C          -1.30870564856132   -0.60339854929131   -2.78606664475869
F          -1.04737926026253   -1.25558148216021   -3.92404264677466
C          -1.46564122655234   -1.32298848041676   -1.60006668729842
C          -1.76762947504452   -0.59846634210198   -0.44586210617725
C          -1.90036881016880    0.78437997390778   -0.47671437241535
F          -2.18210281774035    1.44940323455540    0.64848681015457
F          -1.90797693261400   -1.24186600565041    0.72186065276470
C          -1.31574424909860   -2.78780578237925   -1.56670029887916
C          -0.22835053491110   -3.39956618549679   -2.17545481020059
C          -0.08067627466731   -4.77703020112709   -2.11995550350476
N           1.13683954177289   -5.33543006011773   -2.65424981193058
O           1.75496020532292   -4.66480128813066   -3.45162542231421
O           1.48762408819669   -6.42064630828732   -2.24218166975293
C          -1.03045587439089   -5.59856280923772   -1.49085394613178
C          -2.11488203387679   -4.95669833468391   -0.88149439710170
C          -2.25337004445094   -3.58683246592097   -0.90718722812302
C          -0.94818611329444   -7.04230088046503   -1.51776988267342
C          -1.27799435320500   -7.82446119521110   -0.47013646481550
C          -1.21715534926747   -9.24635193920140   -0.53906697125507
N          -1.41089400468518  -10.07822055890524    0.54007229299761
C          -1.74300387771346   -9.68393887743090    1.88634066898557
C          -3.22565492311660   -9.34835264865671    2.03359850015680
C          -1.26798451919416  -11.43790476183004    0.19097020051949
O          -1.39271627882217  -12.35135658995612    0.98187673946238
C          -0.96402362328099  -11.40426483774998   -1.21846033709012
C          -0.94578271962004  -10.05021162447986   -1.63808311621370
C          -0.65500535612548  -10.04257706224002   -3.05285133587467
O          -0.57618416912593   -9.13684541302811   -3.85884066941716
N          -0.49391730924970  -11.40193222825868   -3.39436342376356
C          -0.13405925781384  -11.75272734640016   -4.74815572741274
C           1.36556605236907  -11.99949588694402   -4.89140894547364
C          -0.67153609848922  -12.22229148424939   -2.30463845490720
C          -0.61205204836723  -13.64112866344612   -2.19249742762664
C          -0.28228508437319  -14.55909889450864   -3.12554610273098
C          -0.25686570801394  -15.97903818972593   -2.89371755792749
C          -0.55898855818411  -16.60929776299998   -1.71338037810920
S          -0.41441302954621  -18.31252780142460   -1.80317542107263
C           0.06279354944168  -18.22734519029520   -3.43761484649132
C           0.10870992811291  -16.94044211113977   -3.90493665666254
C           0.49122555632113  -16.61253196350415   -5.27890633812431
O           0.49926507252694  -15.52023216620767   -5.78751277671627
O           0.85610176974979  -17.73924472225293   -5.96029622818579
C           1.27528462007371  -17.60079185491428   -7.24629084683601
C           1.59875980269484  -18.69198490684755   -7.94681280059323
C           2.07060855190623  -18.73938931299729   -9.31500613350741
C           2.40506161078320  -17.62522821823774  -10.09534677876172
F           2.30402728208417  -16.38826940911662   -9.58984671005788
C           2.85957783554006  -17.76421772640851  -11.40053098957368
F           3.17038608050906  -16.67262281212407  -12.10845262287181
C           3.00010147249774  -19.00986619071897  -11.98528473023472
C           2.67750982672046  -20.12433206192675  -11.23143672499516
C           2.22532965339198  -19.99287485610299   -9.92694005882918
F           1.92272376023138  -21.09860686653661   -9.22999986355047
F           2.80465777946373  -21.34157874629742  -11.77186032974115
H          -1.84920410758675    2.55703786729930   -1.68170005088896
H           0.53559056964866   -2.82120736558955   -2.67336171408989
H          -2.87259136200528   -5.55926777099252   -0.40533303223790
H          -3.10618500169145   -3.12907499290770   -0.43053279558478
H          -0.60650759116546   -7.50580163705468   -2.43486222093626
H          -1.54762248002137   -7.37731501256420    0.47665429121634
H          -1.11924270094748   -8.83667896067566    2.18552082363404
H          -1.49953678505247  -10.54147496796143    2.52018239388840
H          -3.50929933222436   -8.52988859824791    1.37552515391054
H          -3.43897239587886   -9.06314165064806    3.06014905057646
H          -3.82805023570338  -10.21740975407473    1.78135342606719
H          -0.41676566270841  -10.89296757998769   -5.36323148090509
H          -0.71394651271317  -12.61877526672570   -5.07305299293573
H           1.91247892722300  -11.08308356737987   -4.68379494191016
H           1.58686644360818  -12.32025576737890   -5.90512631170738
H           1.70457312053296  -12.76863321827750   -4.20145529743669
H          -0.86729661106261  -13.96867652382458   -1.19289805071059
H          -0.00369288640301  -14.27030317601514   -4.12391115194182
H          -0.85939886696335  -16.16214076655700   -0.78747146395413
H           0.28379510651405  -19.12370925589340   -3.98161461619840
H           1.30972693382187  -16.58178643136906   -7.60827904488947
H           1.49603417943754  -19.65219008686226   -7.46021673735086
H           3.35278279638588  -19.10863594536569  -12.99809269582777
