73
 SCF done       -127.986329090951          0.000286162352
C           0.03996855230607    6.10102012094718   -3.41831924717269
C           1.28969987762099    6.24090070515141   -3.85734654037320
C           2.26175407157023    5.18036735049162   -3.89532428409526
C           2.10708038808054    3.85479413727228   -3.49799413923505
C           3.30873489435147    3.20406482355347   -3.71880078405375
C           4.19979327574392    4.13429538356289   -4.26110035907845
C           5.53450126247927    3.85652236027025   -4.67165222224950
S           6.41645325528842    4.77009638539975   -5.86722086032410
C           7.79067065062434    3.70473766490671   -5.80855235381898
C           8.90636677286473    3.99508307517646   -6.63588034698000
C          10.01681690009299    3.23162436372549   -6.76848996791183
C          11.08121250314414    3.61992786342891   -7.61419058565590
C          12.23890023490314    2.98289745527527   -7.89413240600409
C          13.10018242978068    3.69404767860178   -8.79410720426951
C          14.33481872077254    3.52494823437068   -9.38916691680459
N          14.58331527043943    4.61910402135489  -10.15538430693747
C          13.53632975237924    5.50760939226096  -10.07675222114808
C          13.45451718563113    6.76791407829340  -10.73771689722834
S          12.05247690943614    7.75590048236026  -10.49001043285493
C          12.68088917415895    9.00894047727719  -11.53372551674174
C          11.90550330716794   10.18160307215906  -11.73294552498115
C          12.28055907464835   11.23811126073723  -12.49480105935978
C          11.51111465403273   12.41277070697549  -12.69316173522615
C          10.27412722906608   12.77634095179572  -12.15977035708849
C           9.95023634123624   14.03324836740388  -12.66373275272877
C          10.98622173550234   14.41288785097523  -13.49036242389331
N          11.92606442202462   13.44627292861635  -13.50155056446059
C          13.12036330963801   13.48188193705145  -14.30800662953354
C          12.94952979345263   12.68967650881514  -15.60301526896431
C          13.92594687880343    8.65328003670952  -12.04572946849950
C          14.71181477756011    9.41524884865052  -12.92018528502477
N          15.38363049659052   10.00838466380354  -13.63965019351501
C          14.36265317048549    7.37592815417964  -11.58842578871906
C          15.58187495234396    6.79081955853602  -11.95562574694114
N          16.57073983683356    6.27394206360173  -12.22935404584913
C          12.60444252401665    4.94415440071894   -9.23347113377002
S          11.01105753115447    5.20721996700241   -8.50265378688073
O           9.97772889470039    5.21239523309039   -9.50477692959099
O          11.03147175785130    6.32294055908879   -7.59392964768700
C           7.56615927828497    2.68390506172092   -4.89630947357881
C           8.47146830753078    1.65543006221421   -4.58880488083530
N           9.18709322952463    0.80057793791353   -4.31651282601730
C           6.29856731173280    2.76971891950735   -4.25485366129887
C           5.93885850459553    1.84984321203681   -3.25621828318784
N           5.70461533277954    1.08338849451268   -2.43505404312155
N           3.53876780841565    5.33560173982516   -4.35644684970909
C           4.09083896656955    6.58220348032582   -4.82544854204000
C           3.75430688419994    6.83495681187383   -6.29397480780042
H          -0.64632919786512    6.92923409445272   -3.41527038282046
H          -0.33753588767945    5.16353376926217   -3.05110575595858
H           1.60555016440732    7.21000953508326   -4.21791583485660
H           1.21650055042737    3.41599985566134   -3.09731345401874
H           3.51757391049886    2.17004738990957   -3.53564007157314
H           8.83975225079516    4.90887117757488   -7.21140990291099
H          10.12227655361618    2.30012628121028   -6.22819703409980
H          12.50832600120438    2.02279542758683   -7.48320033244384
H          15.03823875213163    2.71964114515278   -9.32228407092013
H          15.41632689783302    4.76893824096116  -10.70642412607306
H          10.95402109309098   10.19685468666542  -11.22217101105751
H          13.23666778707562   11.19407553217434  -12.99342147969876
H           9.68720689639117   12.19174747924869  -11.48037162364901
H           9.06767715834585   14.60356326369701  -12.45305186180778
H          11.10808753981345   15.31353079484489  -14.06071787465954
H          13.96213938276715   13.08297996531245  -13.73582325904926
H          13.33417515570079   14.52830889060957  -14.54079812887996
H          12.74458405317714   11.64415503693056  -15.38795395253145
H          13.85970298426585   12.74805262773833  -16.19266238110518
H          12.12455297757457   13.09175292557529  -16.18681922346648
H           5.17366708254586    6.56446134030418   -4.68662144963629
H           3.69732172441959    7.39275937269833   -4.20588233089734
H           4.14936178149066    6.03819119279920   -6.91890393961587
H           4.19066891261811    7.77596658863427   -6.61635053280964
H           2.67701708577271    6.87887454556338   -6.43556068192571
