77
 SCF done       -148.425762056180          0.000274172480
C           1.99545193410737   -2.21578616087547   -1.60300409981914
N           3.23886004140323   -1.69551828846073   -1.70540996015987
C           4.11051776405859   -1.89575658721174   -2.83325905373472
C           4.03045842133835   -0.73233274550792   -3.82158987712963
C           3.48673495823504   -0.91208258150813   -0.60176917315027
C           2.35437311238166   -0.96971174214242    0.20680381875669
C           1.42099649715792   -1.78891311000226   -0.42803910472870
C           4.70746533473782   -0.21295524153758   -0.39959005969009
C           4.99723271571616    0.53731093984078    0.68970133837703
C           6.23342351845676    1.21288490401591    0.86366738600938
O           7.19057010008871    1.19994670702985   -0.08643116497223
C           8.25895492489893    1.90685220210352    0.37997911254325
C           7.98846604255003    2.38337004706297    1.64378188492711
C           6.68421995921396    1.94774879252141    1.96379149492956
C           5.96655177330434    2.18767672514643    3.14039917457990
N           5.37295771781297    2.38442679214257    4.10292660286377
C           9.42950872865794    2.06876437098821   -0.41316868526536
C           9.55742327098192    1.64441439757205   -1.68777019057706
C          10.76885253068821    1.82742337598933   -2.42018334141091
N          10.91168268928347    1.53885561164345   -3.75736971039754
C          12.17345045165474    1.82142607070345   -4.18376569056196
C          12.88063593436343    2.30138235282397   -3.10183977298901
C          11.99133244702732    2.30349224478367   -1.99900735019370
S          12.88172272392422    2.86783902921017   -0.57567156353889
O          12.36314054724995    4.11904035853997   -0.08253445797124
O          13.02518096877715    1.81792478046261    0.40131916441049
C          14.41369963569938    3.10413553894633   -1.52901435396718
C          14.21138337701570    2.75838386986523   -2.81651111911206
C          15.58148825398419    3.57297380167919   -0.87895597650352
C          15.60443472028891    3.81535771837750    0.44879176523272
C          16.77364715580929    4.27056500573624    1.12529650722861
N          16.83087920639497    4.47371793511669    2.48445936769128
C          18.06448959850137    4.89533349499203    2.86186151488867
C          18.84306543395375    4.97563443627929    1.72358630882414
C          18.02503157445286    4.58156961637859    0.63765488475307
S          18.98545803534703    4.68531721944017   -0.85040934235888
O          19.18824966772383    3.38513719884813   -1.43355569395121
O          18.48274508761601    5.71391305264487   -1.72189870477948
C          20.46327309532069    5.24682568434937    0.05751385465390
C          20.18689801461718    5.33463159607232    1.37571976640165
C          21.67535405281242    5.52617484663594   -0.62353004437455
C          21.77449016695578    5.40649604400294   -1.96474601533015
C          22.93255158655619    5.66019063262109   -2.77902988340648
C          24.19062023836069    6.04859558841830   -2.34624937212868
F          24.44541068170510    6.22939410319959   -1.03722751677751
C          25.26866946953830    6.27443425336436   -3.22903678222029
F          26.44153400082059    6.64710320604493   -2.69082164556141
C          25.16685159405683    6.13169666549491   -4.58509774535679
C          23.91534243873316    5.73974876132718   -5.08368328483781
C          22.81094702082407    5.50552579431433   -4.18977865932928
N          21.71298890341081    5.14300428480927   -4.84632408843055
S          22.03390963345038    5.10110156358693   -6.41607795837752
N          23.57875478871436    5.53884960883710   -6.35819174582287
H           1.60023073807705   -2.86099528287900   -2.36382544414482
H           3.80927559336258   -2.82165847866484   -3.33076428881619
H           5.13803071107763   -2.02208662404658   -2.48010184645974
H           3.01244703698627   -0.62074705903846   -4.18705949042029
H           4.68690287545948   -0.91588547733454   -4.66812689787854
H           4.32510846346655    0.19796144622807   -3.34224892981551
H           2.22894186702488   -0.47201699576231    1.14710559844852
H           0.44234442632501   -2.04300133683024   -0.07279912158191
H           5.46452669008364   -0.28960592225941   -1.16814731676448
H           4.29201240106860    0.64689138192702    1.49892906724793
H           8.64084579023695    2.97133506505842    2.25589611365933
H          10.25289029931399    2.57920265516800    0.06515907119986
H           8.73381128224762    1.15516376922384   -2.18935580315414
H          10.17347068611847    1.17851772286522   -4.34080185020877
H          12.47186752160527    1.66225995035384   -5.20048175006594
H          14.97604896635407    2.80846147582290   -3.57549542944711
H          16.47427524759668    3.72633920391513   -1.47353921609402
H          14.71391101927601    3.65373913215980    1.03942120101687
H          16.05119440421284    4.32068189995899    3.10515042463799
H          18.30095029782181    5.10487125164316    3.88593930010526
H          20.90326456636030    5.64787920984325    2.11969064869593
H          22.50950262950284    5.84202160416143   -0.01187495638190
H          20.90330684992615    5.09285559972640   -2.52315537527906
H          26.00392709575485    6.31068104203063   -5.23733446665239
