84
 SCF done       -155.843906085448          0.000718609089
C           1.53525750975492   -0.70282542921505   -5.01992997970781
C           1.40399338490674    0.09385278121882   -3.90940949957817
N           1.34072520900443    1.51157424343594   -4.04867477890473
O           1.59691935587586    1.96560188896860   -5.14570406448001
O           1.03164160484283    2.17699753280343   -3.08298028040351
C           1.34151189027125   -0.63019419516632   -2.68229099442853
C           1.28677803493707   -0.00395330091955   -1.33376672531367
C           1.40875497512598   -1.98542919114318   -2.91696471913097
S           1.57105083374768   -2.34798949444406   -4.62082715718418
C           1.35284917667975   -3.07220237761371   -1.98366221876695
S           2.12168227020917   -4.58848697285185   -2.35764863758155
C           1.59012205934817   -5.30086687660475   -0.86565391398233
C           0.85004602096769   -4.37428880276333   -0.12648809396144
C           0.72038517529611   -3.12581573309015   -0.76512097083735
C           0.27304684003820   -4.61182039022892    1.13121133978076
N          -0.21077277165129   -4.75837167573038    2.16219926939996
C           1.93358992634996   -6.64628435395285   -0.59168871400423
C           1.54909949918595   -7.34126726884119    0.51300420479598
C           1.90953752001751   -8.69187105900404    0.72449034681263
N           1.51879401859283   -9.41792240440524    1.82200816995040
C           0.76000624868428   -8.93649259762295    2.95247388227143
C           1.62214008323877   -8.11771016372122    3.90932333782481
C           1.99634053415438  -10.74004829442910    1.77703965311904
O           1.77193156028402  -11.56362124257666    2.63934536987169
C           2.73761933046703  -10.81107469750629    0.53465677467528
C           2.66814701319083   -9.54402291424395   -0.08513601931986
C           3.40423779651038   -9.61346864354589   -1.32886938741836
O           3.61904996373341   -8.78578153739100   -2.19396428115525
N           3.87091279579794  -10.93385851229579   -1.38292361118794
C           4.70676818996043  -11.38508866585762   -2.46945883715418
C           6.18203779559362  -11.41429381237681   -2.07718215533891
C           3.48630579589321  -11.66754593312717   -0.28074041976629
C           3.80610877581529  -13.02696988741000   -0.09286967933626
C           3.40802971506046  -13.73824268454559    1.00334555665667
C           3.70025282742243  -15.10184198619722    1.22126638780532
C           3.28496827378129  -15.84816706709464    2.30916364691658
C           3.75081831114627  -17.18344375872320    2.17196575955777
C           4.52231048050383  -17.21797637818144    0.91263235479850
C           4.48369028097115  -15.98034766910914    0.35871871437037
C           5.23701295971537  -18.29977416803761    0.38319226556993
N           5.86651790558594  -19.14177845499997   -0.07913355555690
C           3.52585037804666  -18.24983783215231    3.01255026470105
C           3.91855917903708  -19.60715857747223    2.80740909771556
C           3.49929880020850  -20.35926918084009    3.87670257450601
C           2.83750605639794  -19.47271323390826    4.82097792092382
C           2.82688950621512  -18.21448633550519    4.30715170031414
C           2.26672131614079  -17.09776148760641    4.93663972905724
N           1.79918661277513  -16.20585448387166    5.48891727632795
C           3.68624726862168  -21.75201945845197    4.13127160467681
C           3.93830303612058  -22.81211840834250    3.27081026022696
N           3.83336976153728  -22.72759221489416    1.85148579253320
O           3.05653143114994  -21.91714667558852    1.38803363550601
O           4.49916952970426  -23.49842464970800    1.19286873331949
C           4.18772097389361  -24.04843298367582    3.93607775539030
C           4.48147793094542  -25.34143195690077    3.26142727866860
C           4.09746011067099  -23.90314337489984    5.28702091636132
S           3.73422198624499  -22.29980849749484    5.77628980577505
H           1.59855723580929   -0.36858312624541   -6.03695041783390
H           1.82405035089846    0.94107703753015   -1.33408408994048
H           1.71852192454332   -0.66576379354468   -0.58736105063313
H           0.25547997971551    0.21757364432456   -1.05936388342238
H           0.14445664280271   -2.32054099198354   -0.34814331890993
H           2.54353611721548   -7.13896674362928   -1.33868461380309
H           0.93627432999397   -6.86524867513216    1.26259908540824
H           0.38722503433285   -9.82733164893226    3.46542657323785
H          -0.09115674129710   -8.34798560733542    2.60009864290735
H           2.44619675597156   -8.72277207672531    4.27959213321057
H           1.02075898637189   -7.79338275591017    4.75335112528992
H           2.02811084318463   -7.23793521864662    3.41517864943991
H           4.55810460073056  -10.66856278980218   -3.28212398928318
H           4.37139128216248  -12.37027947612071   -2.80540733170860
H           6.51066470484981  -10.41664299322508   -1.79656706258856
H           6.78008312887226  -11.75281090497012   -2.91865518534681
H           6.35090260833298  -12.08222772334187   -1.23529685930129
H           4.38487657559957  -13.51248548293736   -0.86494618299871
H           2.82484269590291  -13.24473450976404    1.76989464810173
H           2.68558773699265  -15.48340007465735    3.12026587620904
H           4.96074931353957  -15.69369650061832   -0.55989844090750
H           4.44949832590609  -19.95467176382418    1.94440998531412
H           2.41423797955474  -19.78759372945944    5.75737263199948
H           5.43881737683625  -25.28620695617403    2.74599236999360
H           3.72527665882249  -25.56494964770956    2.51057037364708
H           4.51114836622101  -26.14660477181673    3.99095176334440
H           4.22710413941817  -24.66247121756399    6.03240588495291
