95
 SCF done       -192.484822774926          0.000703756218
C           1.15757268748003    0.93179479871243   -0.76573101450368
C           0.42329625363487    0.59652874157224   -1.88019487546046
N          -0.25781550488120    1.60369812010393   -2.62398157577002
O          -0.28514443503245    2.71769264820837   -2.14034312673683
O          -0.75858307750132    1.30301729173303   -3.68735261399594
C           0.43615353119613   -0.79496051043693   -2.17895941948575
C          -0.38364616767170   -1.41738314232484   -3.24925515241900
C           1.21890371739542   -1.47844219010251   -1.26870170061495
S           1.85917348265492   -0.41821657901366   -0.03174990032874
C           1.56482417883912   -2.87043799666281   -1.20320107558844
C           1.74344168134702   -3.50336624880505    0.04601622880099
C           2.03646804101758   -4.90471672878328    0.14716493190669
N           2.36242632050766   -5.42241381081344    1.33609217195291
C           2.17446495884754   -4.71343787886593    2.41918278960883
C           1.68979404453835   -3.36555105414129    2.33187215092579
N           1.56368269783275   -2.78693756174658    1.16732016029264
C           1.41229760165301   -2.62890120499518    3.51057946693866
N           1.19999044603313   -2.06236211381343    4.48255263243627
C           2.45733835281544   -5.31391267567929    3.66993454490350
N           2.62877662423085   -5.82475270923780    4.68066905335327
C           2.04189991021680   -5.76600885591850   -0.98056102985566
C           1.97932641824310   -5.12083817975548   -2.23035093646463
C           1.76032805728815   -3.68899407747998   -2.33195133683477
N           1.75709106403762   -3.28811310655358   -3.60638667169698
S           1.96542368282519   -4.54901856319400   -4.56499975646434
N           2.07668328914192   -5.68076790223291   -3.43591699958659
C           1.99651815036141   -7.16493925163497   -0.69206169627467
N           2.55989456727194   -8.21541893315445   -1.34722477153216
C           3.37415113959220   -8.21081366390263   -2.54275531945582
C           2.58776827178307   -8.69620645023974   -3.75590643476590
C           2.34862162092965   -9.43437334208650   -0.65507473084149
O           2.79648710679830  -10.50085722419847   -1.00925756001005
C           1.54877802073028   -9.05630618351354    0.49053341749216
C           1.34199258465779   -7.67260342117632    0.44972646634482
C           0.42606955483936   -7.33994689788072    1.53150761950799
O          -0.08984735736046   -6.29478179556239    1.87060093691078
N           0.17446978977146   -8.56677334869623    2.17595889066378
C          -0.60275137133224   -8.60647759938163    3.39355922387503
C           0.28077763986232   -8.80865180040061    4.62051823869623
C           0.82705821388710   -9.60431516411907    1.56316125856593
C           0.76174974745046  -10.99423138250113    1.74860713983992
C          -0.01847642361096  -11.76022982621332    2.57645021696539
C          -0.11851289710634  -13.15280354876663    2.41578407585876
C          -0.41510334548147  -14.11530693945619    3.38634359051448
N          -0.83981664625636  -13.89263503019570    4.70592525725076
O          -1.01712076916804  -12.73949554354913    5.07140572061745
O          -1.02193373888971  -14.86891064883008    5.41082744135016
C          -0.15382767507312  -15.40971443677988    2.84988023641719
C           0.31511175002333  -15.27739682348005    1.57027500874201
C           0.28539278660904  -13.89998846631296    1.21031644324397
C           0.40530720922170  -13.34258304932145   -0.05412212220122
C          -0.36327246093152  -12.23752501701980   -0.54164985288261
C          -0.04820803865240  -12.03214862291279   -1.84606901447489
C           0.97222123761386  -12.96255350465992   -2.23717588614752
N           1.49847624501501  -12.90548893409409   -3.54158099241975
O           2.04199712699984  -13.88727096982046   -4.01319061273889
O           1.34002516097255  -11.85767654868308   -4.14534345055432
C           1.27138879562585  -13.79868223837857   -1.16250906401311
C           2.29324188063802  -14.74298875835050   -0.92317070106357
C           3.26213823938522  -15.18767960133893   -1.77295465551282
C           4.19542160002426  -16.17896888107995   -1.39044817828961
C           5.30030247623440  -16.65619892962437   -2.09776281161954
N           5.74895451864679  -16.07517216171638   -3.31857823290045
O           5.45424703852850  -14.91880249222695   -3.53911514910809
O           6.41647837146342  -16.76993825453514   -4.05823580693452
C           5.96929753896597  -17.74098850796834   -1.46781343602439
C           7.17229236395637  -18.43925851167281   -1.99296397566727
C           5.37001307802925  -18.06069249432374   -0.28335164563624
S           4.00514911173111  -17.09320530965606    0.08066693412617
H           1.28066656507910    1.92061004669245   -0.36799975477398
H          -1.33999034613236   -0.90595878579527   -3.33214173359105
H          -0.55133112713803   -2.47027707404201   -3.04508091490257
H           0.11871808916942   -1.32159364787338   -4.21052311802774
H           4.21108945239889   -8.89086821884131   -2.35896055066407
H           3.75293473098964   -7.20236316553288   -2.70542613838882
H           2.24701667314950   -9.71814693773493   -3.61422426739379
H           3.22784514128646   -8.66985126038127   -4.63228172935282
H           1.73013145830022   -8.05326028331145   -3.93019207753865
H          -1.36018377060696   -9.39094665983706    3.31833854668849
H          -1.10797626078598   -7.63864902712517    3.45718521008711
H           0.84120789311939   -9.73778927854725    4.55180461951637
H          -0.33930104787507   -8.84610399105654    5.51112685347084
H           0.98359965560224   -7.98400702539649    4.71915174330776
H           1.42235686777501  -11.51327147513365    1.06451975536613
H          -0.54299645711098  -11.33730440404079    3.42171704322946
H          -0.31233473566759  -16.32279778183501    3.39216213241777
H           0.51839034022538  -16.08697996277768    0.89586515467869
H          -1.13222585703135  -11.73920106660246    0.01574253215691
H          -0.47482773260651  -11.31126532342643   -2.51768576152970
H           2.31233210030133  -15.13752713113162    0.08600275455503
H           3.34519791159778  -14.80076535996956   -2.77996380588784
H           7.95003167454604  -17.72293136018198   -2.25182854999835
H           6.92253255157033  -18.98080887294784   -2.90384755502724
H           7.55564773322708  -19.13676555021607   -1.25276453080619
H           5.66581842550765  -18.82876440311908    0.40395518120090
