120
 SCF done       -233.623131665839          0.000830636878
C           1.54733216111516   -4.47535673799112   -0.26430841543556
C           1.47900403295291   -3.36102326210117   -1.08482697897698
C           0.25204931140118   -3.03773657986612   -1.66576704500666
C           0.15665106571310   -1.89943279440683   -2.50550713497271
N           0.08634324455922   -0.97949231132190   -3.18272164435882
C          -0.89552795568808   -3.82051405123309   -1.43165288065865
C          -2.12630267363290   -3.47029700793435   -2.03830563441518
N          -3.13094270544593   -3.20671883250007   -2.52001780633044
C          -0.82387509906998   -4.93903047569384   -0.60047767685904
C           0.39249723132613   -5.24926128119978   -0.02864496685618
C           0.71215568838748   -6.35276680491646    0.90290608160981
O          -0.03791373687206   -7.20532942179771    1.32057377107621
C           2.13991790685708   -6.15732403252245    1.25632526607484
C           2.66967799550369   -5.05996007393335    0.46457209679328
C           3.98270454343705   -4.70294233365375    0.35789690491249
C           4.45460601472639   -3.63514973422886   -0.43756209255303
N           4.88164888147127   -2.77861171454794   -1.06881384100574
C           5.03353542800129   -5.40840146511592    0.98723963964268
N           5.91724375397872   -5.98309107454316    1.43879820741623
C           2.73015301407732   -6.80769690894162    2.28617267892266
C           2.10082142308936   -7.86744282211510    3.02534065802888
C           1.75346173603577   -7.76792247460887    4.35189765150564
N           1.96050828876125   -6.61164077655291    5.12335566911276
O           1.69338284806293   -6.65164352854741    6.30622462880336
O           2.40250433892207   -5.63007565371443    4.53870774248928
C           1.07000920527164   -8.96790437487967    4.76847331762074
C           0.96132732299985   -9.78471013353027    3.69262659936385
C           1.59419847548452   -9.16448611398410    2.55548340618677
C           1.83165091778398   -9.64648919889254    1.28325948703448
C           2.87329655588660   -9.16437529724848    0.43101015953648
C           2.85835262694655   -9.86604385612363   -0.73554268520891
C           1.76872713943059  -10.78940755285299   -0.70906872590176
N           1.60952815177833  -11.70695332439356   -1.76550996061575
O           2.19876575477816  -11.46127554625509   -2.80258125276436
O           0.92773169688447  -12.70747162278630   -1.59765409342993
C           1.09647124262224  -10.68092318023162    0.52069360245763
C          -0.10147650272627  -11.26874863885945    0.95441811114055
C          -1.03767092664823  -11.86820010190853    0.14443298981699
C          -2.13217330013924  -12.59135527448293    0.63354389766027
N          -3.07757218908887  -13.17328312904174   -0.17429695961961
C          -3.10580416308542  -13.15520411115202   -1.62035297623623
C          -2.11091950773331  -14.14368833541659   -2.22278217253379
C          -4.02632168557438  -13.90025164800127    0.55565605452945
O          -4.95478640436257  -14.50049240654121    0.05832251363461
C          -3.61875948893998  -13.73190984241743    1.94227501739089
C          -2.47270156644677  -12.92979807355192    1.96283326770975
C          -2.05850404696597  -12.77999742983042    3.34694231488915
O          -1.12853447182268  -12.18635987533021    3.85221777278240
N          -3.00856484408714  -13.50363218850049    4.07855638325423
C          -2.91152224007788  -13.62820916287806    5.51551182597755
C          -2.28651874679620  -14.95720056135866    5.93008223470662
C          -3.94527210775029  -14.09412857561321    3.26654709948127
C          -4.99306368391785  -14.89829803687702    3.73524323912310
C          -5.90502032872689  -15.50186918006401    2.90682416900572
C          -6.94021161231512  -16.33690482928775    3.36811695383178
C          -7.23695869116124  -16.71256624990198    4.67085863092192
C          -8.35877168136418  -17.57728103798693    4.66712534006796
C          -8.75795926562999  -17.72590911056663    3.25243907909101
C          -7.90940789663166  -16.98670485260651    2.49400191257306
C          -9.81936198128845  -18.49914682708331    2.76591316809847
N         -10.68221572634271  -19.12959406894643    2.34606297223535
C          -8.96103340309481  -18.16180048981705    5.76398538057620
C         -10.09966049098882  -19.00956601072547    5.78716951587461
C         -10.38261848672032  -19.36178650524963    7.09518239264105
C          -9.39000376475032  -18.72278620322654    7.95048259070325
C          -8.53955629265300  -18.00756978616423    7.17049638360361
C          -7.44658101513106  -17.26887697385341    7.63825109240245
N          -6.54779535666029  -16.67482103175983    8.03735787788750
C         -11.46055825572910  -20.17358620899179    7.51262504595434
C         -11.73845251038153  -20.49407608637977    8.80923969875717
C         -12.86196886025334  -21.26520364595326    9.16619195737640
C         -13.34201443331100  -21.51586086236900   10.42084763756817
C         -14.29673775391540  -22.63868016455459   10.62256515820925
O         -14.88951743341314  -23.25133534032955    9.76798633348443
C         -14.31570754499253  -22.87171965134403   12.08537981373013
C         -14.95677426551286  -23.86988000004826   12.78780763541049
C         -14.79668032911464  -23.90596262367187   14.17414693406987
C         -13.99196752496890  -22.94664748300501   14.81809107502850
C         -13.35423265026585  -21.93462598310160   14.09757279843234
C         -13.52548630254095  -21.89568531294982   12.72455744185692
C         -13.02584384827885  -20.95631029419240   11.71591081298843
C         -12.55977142076557  -19.69693958392334   11.98713398038786
C         -12.32946339176012  -18.69495399822364   11.01935575803365
N         -12.15906401105596  -17.82573041053583   10.28987501823857
C         -12.34582065089856  -19.20314917987400   13.29312576878366
N         -12.13749218274738  -18.75919717552481   14.33007424599450
C         -13.82269571547674  -23.01032273410902   16.22393439355687
N         -13.67622969237580  -23.05715553403489   17.35819381681446
C         -15.43883164183712  -24.91345572136958   14.93442030344040
N         -15.96501980367173  -25.73593210640524   15.53232726435536
H           2.33650876753668   -2.73662479309226   -1.28025572178653
H          -1.69704778134176   -5.54341024469821   -0.40673297269760
H           3.69656742543569   -6.47899683241026    2.65231323145031
H           0.71828105367915   -9.13896199458846    5.76742407820745
H           0.54690497359922  -10.77174932674579    3.71863730413584
H           3.61263743671317   -8.44207793280727    0.71909776173413
H           3.54704131118833   -9.78722276983059   -1.55577990117880
H          -0.31428531670262  -11.22173987995104    2.01078150661512
H          -0.93939983960549  -11.80809087826973   -0.92659269297177
H          -2.91291298036650  -12.13933739024101   -1.97383280853990
H          -4.12354259612910  -13.43784615697990   -1.90378608573540
H          -1.08638806839264  -13.89129370879022   -1.95976227450671
H          -2.20372262406726  -14.13361761132487   -3.30498279016959
H          -2.32440148965495  -15.14890788712683   -1.86775930228704
H          -3.90339514559463  -13.50865436836815    5.95816295601631
H          -2.27600320834348  -12.80383952223557    5.84955024460154
H          -2.87688799443055  -15.79802064714566    5.57332745673326
H          -2.22831755334157  -15.00923106382126    7.01322159713603
H          -1.28182623224204  -15.04121962356389    5.52303523079110
H          -5.07057684101546  -15.04880538163399    4.80191480046673
H          -5.83343942452185  -15.34596081388000    1.83793736240547
H          -6.71512675247019  -16.40840226094477    5.55542401714987
H          -7.92610176078709  -16.88097841154297    1.42520908143502
H         -10.65228674088995  -19.31996332656790    4.92187467511758
H          -9.34890073640452  -18.79405207653326    9.02061242032191
H         -12.12600851838239  -20.52420911732458    6.73341750931664
H         -11.07553138036091  -20.15857501284059    9.59210905930576
H         -13.38669785868293  -21.77847255112876    8.36632298538102
H         -15.56439694043236  -24.60285599772683   12.27922858479760
H         -12.74092691638853  -21.22066942026641   14.62423698328634
