124
 SCF done       -248.240266076226          0.000993238410
C          -0.88473610593900    0.30441196049314   -1.19100843714636
C          -1.71640410778297   -0.66034716447689   -1.73202385059373
C          -1.56155554156804   -2.00571002352938   -1.40702601783505
C          -0.59675679937985   -2.41377057672664   -0.49304390922103
C           0.22856214855360   -1.44766306942898    0.04495230309329
C           0.11218398182908   -0.09149230877710   -0.30971944697219
C           1.15641296946531    0.67695689543681    0.35883430848607
C           1.35411263135234    2.02230486568954    0.26682631675255
C           0.54534290036050    2.90015082728128   -0.49122335967001
N          -0.07992852974319    3.66427896018004   -1.07455424138320
C           2.38805153266401    2.72743501279620    0.92504232263074
N           3.20170820061368    3.35807727246620    1.43011116107678
C           1.95462434243456   -0.26510713310788    1.14634045618347
C           3.04348054128292   -0.06656417648251    1.89213628053765
C           1.35161122717194   -1.62801442390225    0.98493896007196
O           1.71826366461290   -2.64298894412187    1.52193949556810
C          -2.42538250670037   -3.02189329642569   -2.10335227516136
F          -3.72301110466718   -2.61521209696023   -2.11854841457932
F          -2.44262313053456   -4.21369791486019   -1.44449474407515
F          -1.91109434844760   -2.11848841131846   -4.24620073588077
C          -1.96072833414604   -3.31053482556768   -3.58017591750874
C          -0.64885520645325   -4.06223742172212   -3.57925933546393
N           0.60438149573374   -3.51217799983703   -3.26443633444422
O           1.56154285592745   -4.26218552129303   -3.29556142938733
O           0.66120020008070   -2.32442072569207   -2.98949092128746
C          -0.87883989583637   -5.34596201060554   -3.96554425050484
C          -2.24386816266980   -5.50923002572390   -4.32540818760947
C          -2.92284382609897   -4.32710505534495   -4.19037267870083
C          -4.26614052973376   -4.00817602438508   -4.51141137428362
C          -4.73993866081062   -2.74704592157181   -4.86647225692973
C          -6.08179146698640   -2.85470658579864   -5.25570055040994
C          -6.46668088482632   -4.18377101322074   -5.16902189108550
N          -7.81545494257993   -4.58223180012207   -5.28912505057242
O          -8.17003918820144   -5.62336785370467   -4.75782396607740
O          -8.56146882879251   -3.83607314946802   -5.89185794997028
C          -5.35146318581791   -4.96148597997433   -4.69608832198975
C          -5.30875177148639   -6.30898002746154   -4.39372613307350
C          -6.13425412185311   -7.27263953587642   -4.97553998538495
C          -6.40618597302874   -8.56262801386216   -4.57253460693540
N          -6.17193190260299   -9.21327108297687   -3.38567662226540
C          -5.48639834624458   -8.69698610525676   -2.22385201564010
C          -3.98317642449166   -8.95608660531850   -2.29051017608315
C          -6.74765009023088  -10.49348132689910   -3.36188672832666
O          -6.69015949722721  -11.24140491956273   -2.41507426803083
C          -7.37864176819777  -10.64069872506265   -4.67617542325054
C          -7.15702823979426   -9.47709115980431   -5.37536719651817
C          -7.76861966661300   -9.58702306367595   -6.69655758744913
O          -7.78645566264775   -8.82738556234738   -7.63533636519211
N          -8.35350008276543  -10.85725381697934   -6.68552540396959
C          -9.11990366476543  -11.33203990851280   -7.81506456973853
C         -10.62028704033195  -11.16191241041789   -7.59431093369409
C          -8.15350730365441  -11.52460245492416   -5.49409177875853
C          -8.63500969322306  -12.78506291287828   -5.21675630153239
C          -8.42671461722351  -13.45864528551626   -4.01032067797078
C          -8.94080643707324  -14.71076434152767   -3.74363340962463
C          -8.76521291243577  -15.44471443924454   -2.52908586341944
C          -9.44193708235392  -16.63578632269667   -2.61483739110724
C         -10.07825870383793  -16.67336502240710   -3.95036874762569
C          -9.76727529190748  -15.52671076744758   -4.60992041010519
C         -10.85965404430716  -17.70179172047162   -4.48792665121378
N         -11.50582648457661  -18.52019580620928   -4.97078065114654
C          -9.56007572079093  -17.67030324063748   -1.64473161356948
C         -10.34767108894423  -18.78411614965790   -1.70863436140688
C         -10.16977900105128  -19.56824411798031   -0.50650848224942
C          -9.20438677251593  -18.84941354272806    0.31307460689067
C          -8.83855405522382  -17.72620018292336   -0.35127680150587
C          -7.91369124872628  -16.78412818274297    0.12206937448920
N          -7.15390596422914  -16.03146508054649    0.53877322335317
C         -10.79671115751742  -20.73065858350850   -0.24901333777838
C         -10.59698331896100  -21.56630873747075    0.96689190233586
C          -9.26031414779639  -22.38726243348248    0.91229612842509
C          -9.47638091779515  -23.83087902570954    1.28887129699231
C          -9.47991482707069  -24.20001519164443    2.62867433482250
C          -9.73969969199310  -25.52177687160988    2.93265036444518
C          -9.99910619984410  -26.47685419060915    1.93214020044678
C          -9.98595690410224  -26.09210146946437    0.59780521955124
C          -9.72801190644798  -24.76676232265997    0.28914697056419
C         -10.25416522600572  -27.77402781340778    2.55077856039072
C         -10.55211835026568  -28.93413892933601    1.90109766596055
C         -10.65718819316562  -29.05996282188337    0.49642886145944
N         -10.74852849259958  -29.22693751289054   -0.63429034695376
C         -10.79864845563724  -30.17103862361395    2.54121743960327
N         -11.01553941006267  -31.20119675325866    2.99531399180534
C         -10.13874110059561  -27.59583463424054    3.99992507233521
C         -10.27864703421910  -28.47465998265009    4.99485906996016
C          -9.81025030640802  -26.15748878036565    4.26364396380885
O          -9.64480116569190  -25.64494828989246    5.34185434088613
F          -8.37020980025132  -21.78547706439021    1.74839293759377
F         -11.64765031884555  -22.44286294392950    1.09548746971113
F          -8.69582588702121  -22.28553951214889   -0.32010227133197
H          -1.01208307587257    1.33550876495923   -1.47600070701580
H          -2.48526464624468   -0.36950396522747   -2.43049348628480
H          -0.47379796614790   -3.45112349081802   -0.21964913321914
H           3.51757845704183    0.88978331837361    2.02434728868605
H           3.48403324077950   -0.91407576024239    2.39362934285734
H          -0.12438565270626   -6.10984424556065   -4.02112416303045
H          -2.63864633710606   -6.41493998422336   -4.74339792782922
H          -4.16930432082090   -1.83920444533862   -4.87631495983723
H          -6.72824284948750   -2.04670941548557   -5.54229591426378
H          -4.54182813905094   -6.62003672649383   -3.69805331393803
H          -6.62659532319904   -7.01256424088006   -5.90370120893229
H          -5.90164033972883   -9.21944109253095   -1.35744474348982
H          -5.70686689581128   -7.63051246574668   -2.13354575080607
H          -3.78930309293954  -10.02459029908813   -2.24099655364388
H          -3.48922211306128   -8.47467456909259   -1.45142452592730
H          -3.55578755067763   -8.57466431982798   -3.21560169903812
H          -8.86580949029755  -12.37682263850830   -8.01321613116624
H          -8.80525976715180  -10.72654705622456   -8.66927498599621
H         -10.95634451490881  -11.71790127566963   -6.72189303216999
H         -11.16141774922553  -11.51793313829608   -8.46627416556476
H         -10.85593224665573  -10.11126162280615   -7.44558055933162
H          -9.21277222014287  -13.27961233574831   -5.98321342846844
H          -7.84000837742159  -12.97579951109569   -3.23953018820460
H          -8.19526355285745  -15.08939617151899   -1.69290052795782
H         -10.08654751026019  -15.27612056796590   -5.60365979735841
H         -11.00900072593159  -19.06405789693446   -2.50421197318895
H          -8.83826527366755  -19.17027524022649    1.27005919570888
H         -11.48180737062152  -21.14700494738912   -0.97422448484659
H         -10.57383180638894  -20.97096358574128    1.88917546594330
H          -9.28129560488913  -23.48743718983887    3.41445198271390
H         -10.17580901855927  -26.79537813819968   -0.19603441349711
H          -9.71725222430144  -24.45332280623886   -0.74357804423853
H         -10.51316430760006  -29.51457540416134    4.85214114886829
H         -10.14986155211345  -28.12817755303668    6.00839975423200
