117
 SCF done       -193.706581566754          0.000564124703
C          -0.14577401940689   -0.52706439036924   -2.54399042598121
S           0.99843858239215    0.63870071483555   -3.01738606122355
C           1.63435178505514   -0.38233476539505   -4.26698741649882
C           0.98494518507126   -1.61392615607144   -4.28505759061386
C          -0.05579012861337   -1.68089043886810   -3.28598119226465
C          -0.89373812661533   -2.83340772163282   -3.16554488301448
C          -1.92542580003909   -2.88650528093516   -2.13959137253222
C          -3.04290947425750   -3.59955057492357   -2.21771005155801
C          -0.67071084863997   -3.86586211442660   -4.03826418057453
C           0.33725101904658   -3.80257379213191   -5.01424068464224
C           1.16533756953324   -2.72296550587286   -5.16359920158156
C           2.21783886706599   -2.76542788371660   -6.22242758513435
C           2.70700158407011    0.16216940889197   -5.06494280056215
S           4.26660633216624   -0.62880459549145   -5.10397762412460
C           4.91094523622347    0.59319795393537   -6.10963195646660
C           4.00255327794805    1.57190393383173   -6.38103847351544
C           2.74019272706200    1.34135830637382   -5.76804310974673
C           1.65956627392843    2.38197787725057   -5.92078083975351
C           1.83469937864261    3.08063588337957   -7.27992359311794
C           3.18734485816970    3.77830621705777   -7.31227230993188
C           4.32872136177214    2.77008584539292   -7.23111403468506
N           5.52805143509053    3.38777290706463   -6.59304465968050
O           5.35357180019856    4.10536618008880   -5.64148433721431
O           6.60081936176672    3.07627469343122   -7.04887242447808
N           0.30153989198455    1.93225524604713   -5.71458911005222
C          -0.27115482255151    0.80151735323775   -6.19359664269118
C           0.17525455263341   -0.02538932332353   -7.15897076468551
C          -0.52653731509047   -1.22270212636131   -7.49835113352819
S          -1.92360917339058   -1.73621186582080   -6.58671944455649
C          -2.10611493823096   -3.13695157473539   -7.56127038719857
C          -1.15860055488617   -3.20822459432822   -8.53617669485645
C          -0.24202020440953   -2.12785371620211   -8.49760279749326
C           0.85773266092969   -1.95840800971291   -9.50495158030957
C           1.06671553638735   -3.23629098759390  -10.33264670634491
C          -0.25087973275961   -3.87238670770144  -10.75892992396113
C          -1.06637549930854   -4.31213071585356   -9.53619791841279
N          -0.38226854902441   -5.49024299014530   -8.93400306917913
O           0.51024349735132   -5.28436054157041   -8.14715076215740
O          -0.75250288546753   -6.57873802200776   -9.29862617546395
N           0.55776556387523   -0.82264899902640  -10.36264179897458
C           1.38874648251348    0.24250507911104  -10.46367439766765
C           1.04006349281277    1.46323808264127  -10.91353165651989
C           1.96420602005635    2.54191520836201  -11.04153568981151
S           3.66299223854671    2.31839735334020  -10.70668198400166
C           3.98798774989754    3.98485878592101  -10.97195359294485
C           2.86351486692165    4.67161442307703  -11.31374527209640
C           1.70769920870209    3.85135133619631  -11.37890596533335
C           0.35862618982261    4.38236608492020  -11.78129251013031
C           0.47537505024477    5.81742789100685  -12.32842123188717
C           1.38512021245431    6.66523898909969  -11.44964847079280
C           2.82427632157143    6.15098677084622  -11.54789551012686
N           3.61708047177453    6.83211792775219  -10.49350204329314
O           3.39752370954479    6.50902448086476   -9.34961782919887
O           4.40522127481962    7.67290654932285  -10.84395824349150
N          -0.29584243264887    3.49339440378157  -12.72273207527203
C           0.26446636430062    3.08902490680491  -13.90954877214169
C           1.52682307721262    3.27645922808212  -14.32652771799783
C           2.02803693100380    2.77952249214523  -15.57963880160732
S           3.02637574037525    3.85925110651111  -16.50464503768300
C           3.06017458417360    2.80578141811109  -17.84779283259638
C           2.35368688054232    1.65074963145050  -17.61278677199373
C           1.78870386230504    1.60784150442653  -16.28673843263958
C           1.14834830037947    0.40684357161337  -15.84600116357816
C           0.80384301588499    0.19493152235270  -14.44460129171777
C          -0.18642503732816   -0.57299787904094  -14.00788326852289
C           0.98068051664430   -0.59980833342081  -16.76307124745442
C           1.44800681854977   -0.50569478108775  -18.08911396134604
C           2.15515645579834    0.57458356700793  -18.52600223357130
C           2.72566086258927    0.65586760911774  -19.90620320243602
H          -0.82207527985121   -0.29411277329757   -1.74691585771817
H          -1.74454675062755   -2.28476738142103   -1.25873427519199
H          -3.28769509262201   -4.18822729289406   -3.08533876702967
H          -3.76400773159682   -3.60719476923065   -1.41870333993274
H          -1.26647224208287   -4.76304470704903   -3.96941265550201
H           0.46268056403319   -4.64380325209351   -5.68029241272611
H           1.97462631083724   -3.54166308564010   -6.94336303234948
H           3.18686265299105   -3.00094748899862   -5.78228863130298
H           2.29980356452949   -1.80940982089015   -6.73182401417986
H           5.92795218382096    0.53090031143331   -6.44421693710216
H           1.84175574692593    3.13881416052571   -5.14486352813112
H           1.04028479727464    3.81635049663538   -7.40592330017440
H           1.75743343983947    2.35742812688015   -8.09246419611041
H           3.26147637416727    4.45345308589634   -6.45625221240686
H           3.28485919590620    4.38044634687606   -8.21581941335075
H           4.65462257820902    2.43705061743365   -8.22229177332046
H          -0.18578710879552    2.37563158916622   -4.95547921542004
H          -1.22128735700491    0.57031292375708   -5.72661771041383
H           1.09481432894552    0.17277270015922   -7.68584417913978
H          -2.90878961872763   -3.81935858230763   -7.36574829877235
H           1.80026359670070   -1.73554894861131   -8.99339007483856
H           1.64207941167739   -3.94393637269154   -9.73352652679313
H           1.65434108979836   -2.98499559848941  -11.21647070884661
H          -0.06496802779244   -4.73454354405082  -11.40300611274069
H          -0.84579715580074   -3.15306530382860  -11.32448414939462
H          -2.05443282754021   -4.66918965309286   -9.84344919046097
H          -0.42273352355652   -0.63882155291963  -10.51887177379694
H           2.41622032955242    0.04174099939137  -10.18592687839595
H           0.01837583265063    1.66964489145782  -11.19200137524738
H           4.98699731819457    4.35445607865173  -10.85166370690819
H          -0.28171645210298    4.40148522030275  -10.88655750295979
H          -0.51869121529640    6.26616905282134  -12.37095178967285
H           0.87100139603164    5.78267187062900  -13.34485806236849
H           1.05841634947159    6.59565955824535  -10.40846125833068
H           1.34504900564118    7.71120577971860  -11.75898156318523
H           3.27395637012823    6.42832689147343  -12.50813618791620
H          -1.30098327240679    3.56628469828411  -12.73598803291897
H          -0.41230413947372    2.50768709008882  -14.52104662446508
H           2.20543444591675    3.91402909763369  -13.78154115026772
H           3.58845670746969    3.09993959201541  -18.73134931249090
H           1.44195031201644    0.69426129970514  -13.72763616493465
H          -0.87252657312725   -1.06455289016001  -14.67762343591549
H          -0.34900748892641   -0.72693150135495  -12.95534941688807
H           0.52055393347936   -1.52521544281225  -16.45037508695119
H           1.27409880229900   -1.33842742620280  -18.75602826014516
H           2.46865617057572   -0.23078769504068  -20.48029633804529
H           3.81130919211659    0.74158768101265  -19.86377549704208
H           2.34222435873161    1.53348686634981  -20.42626714601989
