112
 SCF done       -223.300261136085          0.000671604003
C           3.44260945715029    1.33288532754333    6.83761649851923
C           2.09329643661277    1.30168555834744    7.01801774681961
S           1.49475046920254   -0.30906115791146    6.88819722728813
C           3.06306815864023   -0.95283702334944    6.58976180740908
C           3.99813953174976    0.03380900725039    6.59084011070564
C           5.44940363367533    0.13772382514396    6.42493445654935
O           6.25456179840622   -0.74927367225258    6.25391118738762
C           5.74507422340814    1.59673177373397    6.59297681734207
C           4.49987386302771    2.31996953877731    6.80294599073828
C           4.33033073818469    3.67495477031059    6.87114281631052
C           3.05576183142623    4.24612902548822    7.07342485047034
N           2.02167808727673    4.71338574689344    7.23811980698999
C           5.36500344837393    4.61616425744160    6.69517594168710
N           6.16938860358171    5.41235542805101    6.50600667573765
C           7.00478777162117    2.08675825305098    6.69841758832270
C           8.18741405881016    1.34903050610886    6.39605488427918
C           9.28552842583087    1.19179295222970    7.21567781769381
N           9.41776914883618    1.73242530317406    8.51014531641086
O          10.47954984091916    1.57990177884211    9.08035062377837
O           8.45756299801603    2.32820045049868    8.97222943618392
C          10.24135187896325    0.31833011500540    6.58561056053940
C           9.72060181330018   -0.10014746258257    5.40350815280787
C           8.43934122574810    0.51793336992075    5.20798864514893
C           7.64104963755931    0.49235632166301    4.08138445040309
C           6.78252558797656    1.54297698320963    3.64499308837896
C           6.26816501640342    1.20591917253732    2.42720098051660
C           6.72940618746783   -0.09514576949377    2.06108762444312
N           6.30523059320528   -0.65702205930881    0.84184877872502
O           6.91498966207546   -1.60452280325161    0.36773091859771
O           5.34375673390102   -0.14040514139073    0.30205431940477
C           7.56560394587514   -0.59144167332373    3.08016396317691
C           8.06618313616050   -1.86691801396243    3.38368411575379
C           8.03954962205573   -2.98799610942251    2.58541505719910
C           8.56825242189631   -4.21919401425559    2.98982396711129
N           8.54496854619867   -5.34284929991870    2.20544136535199
C           7.98918113823755   -5.45739909651101    0.87478597621982
C           8.91425961203075   -4.87040541043246   -0.18703357636091
C           9.18493231736947   -6.43348331014820    2.81595691101812
O           9.32629007775799   -7.51682052805975    2.29864326785868
C           9.60591868643750   -5.91772324767749    4.11187877669265
C           9.22997442181521   -4.57546036591387    4.19162111710390
C           9.70775388205926   -4.05189967377295    5.46297648642015
O           9.63393739514460   -2.95289033365306    5.96640004571745
N          10.34798275733159   -5.14445954202687    6.07017542720791
C          10.98803833235174   -5.01105082255410    7.35876784765456
C          12.49128274146312   -4.78343875550462    7.22306310406200
C          10.30034907420727   -6.27142823464594    5.28973354884667
C          10.87907240440481   -7.49998466060344    5.63042191089942
C          10.67314719626709   -8.64866161572564    4.90374135822892
C          11.30349848075074   -9.87436873716526    5.16115468784109
C          10.77760178981634  -11.14724242406158    4.92370131844658
N           9.52191100274474  -11.45929831527610    4.36070310630556
O           8.71515880976445  -10.55865071200850    4.21095776567799
O           9.32214244632038  -12.62318708796604    4.06824705334432
C          11.66472217806080  -12.13280588368521    5.44543225146757
C          12.73008749640190  -11.50449817481738    6.02816006523690
C          12.60100026517147  -10.09627458452473    5.83575305381050
C          13.57996204346290   -9.14464172291799    6.04606396717525
C          13.76882027046866   -7.93239152903719    5.29672152975659
C          14.93019583483759   -7.35336066591100    5.69174008649928
C          15.51200627994559   -8.14579829651401    6.74516167903992
N          16.61789973534476   -7.66382123818472    7.48244795437281
O          17.18242392200928   -6.68072770391460    7.03828884180042
O          16.91679074320621   -8.21271273931882    8.52662936453861
C          14.72402363820422   -9.26645707478183    6.96629104649133
C          14.86243615233305  -10.31349400756898    7.91860503761592
C          16.04497690672691  -10.84382061780543    8.32908185687220
C          16.09994866289570  -11.87202520040462    9.29883798725322
C          17.24258112532094  -12.51729473221231    9.67243300596340
C          18.59571844119349  -12.26768570934957    9.07760405076884
O          18.85643419370834  -11.61164833187998    8.09631883027382
C          19.52044522651768  -13.03312706183999    9.92221669189493
C          20.86047129695743  -13.23389159206919   10.00335973342423
S          21.23815312309121  -14.32074230633881   11.28682064450833
C          19.58088049203177  -14.51349145873593   11.71614558294799
C          18.77970997406902  -13.76762296695386   10.90501724128187
C          17.36665633469624  -13.49872066584499   10.73899942058801
C          16.36614230365581  -14.09875400643019   11.45864094545513
C          16.65652960180255  -15.03883735497597   12.47011081434949
N          16.87845154347418  -15.80310019419122   13.29626761180149
C          14.98505012180551  -13.89253443822081   11.27596372066329
N          13.84845069196836  -13.77289837836684   11.16381999826128
H           1.41448918838429    2.10554642499680    7.22217392166964
H           3.19467265228672   -2.00460048112769    6.43196707482461
H           7.15788137547401    3.08082028717202    7.10574775421107
H          11.18977252049126    0.06347659946814    7.01775353780190
H          10.22472899097618   -0.69966875856359    4.67233077172615
H           6.66549602225063    2.48721740244226    4.14105646049268
H           5.62509638363168    1.79948345537561    1.80438135902439
H           8.48633400989298   -1.96785069937136    4.37530140015883
H           7.62172112480628   -2.92859434563976    1.59240993352834
H           7.01304709451837   -4.96835482423476    0.84568238748092
H           7.85707809199497   -6.52796167688887    0.69648678218306
H           9.03341123745273   -3.79813505182234   -0.05606135105594
H           8.48978052052411   -5.04960769534205   -1.17019654299597
H           9.89117264121462   -5.34551272350881   -0.13887833901371
H          10.77796959415829   -5.89855359878265    7.96062157109635
H          10.52887491192142   -4.14265899720285    7.83878845912232
H          12.97244551903650   -5.61509521283761    6.71252991365441
H          12.93477382961935   -4.67504828903906    8.20849005365113
H          12.68016706249261   -3.87395304865640    6.65848212571558
H          11.48034551895973   -7.54514489311717    6.52752683330096
H           9.92341943841505   -8.64698158612963    4.11886093722932
H          11.48769916941828  -13.18989662612884    5.37949388082408
H          13.59270834641866  -11.98943713474460    6.44155773250532
H          13.14149913657994   -7.61488567323900    4.48724645771967
H          15.38128457605453   -6.45452682898717    5.31597362390188
H          13.94029677057431  -10.74063192936895    8.29616405136866
H          16.97829388453504  -10.50508676981921    7.90662836925596
H          15.17016376647952  -12.12643749723618    9.79329612989267
H          21.64215133712438  -12.81577640451295    9.40135159153002
H          19.31786562118566  -15.15637720575256   12.53223035417216
