85
 SCF done       -159.724205767999          0.000768524120
C          -1.65583273581224   -0.82520659325903    0.53196113301635
C          -2.01903384050262   -1.67757229852263   -0.47825308822883
C          -3.12708905221069   -2.54800502807400   -0.47249665023010
N          -4.04141310206784   -3.22937839975052   -0.61203188984641
C          -1.38349723987357   -1.72311968317757   -1.73768052119150
N          -0.90361754436643   -1.83119096904422   -2.77552257137549
C          -0.69574472982319    0.27367393359367    0.40929012068301
C          -0.81540263365377    1.11623476310167    1.53073262135855
C          -0.04610154858153    2.25765847187392    1.65268438759952
C           0.85748377742950    2.55385666031566    0.64500849265964
C           1.00023145181144    1.72558163711994   -0.46705185944376
C           0.21667644282081    0.57846656141910   -0.58570464148793
C           2.00891358823486    2.05270646465232   -1.52168393616837
C          -1.80746558870633    0.55735708089708    2.46427793236961
O          -2.18772434821874    1.01091184912253    3.52035607123833
C          -2.22121092947961   -0.73844515588216    1.85907617767364
C          -2.84740872356570   -1.66601844261374    2.63848734599849
C          -3.06866964445741   -2.98564979438391    2.32829416510567
C          -3.22761939631221   -4.17614861554535    2.09422454673978
C          -3.39328238184373   -5.44468821313691    1.71892228125948
C          -3.52677796225669   -6.59184361186832    1.31989085243385
C          -3.66841148714348   -7.86343219197941    0.80898870964666
N          -3.93579802999243   -8.09637116715586   -0.52562717943221
C          -4.10340434551188   -7.07008722959737   -1.52451212975950
C          -2.76861428916383   -6.47304493100296   -1.96082304524470
C          -4.00963869812676   -9.46316653264929   -0.80644412735945
O          -4.25244914002350   -9.89998226529597   -1.92342821650358
C          -3.76808059038975  -10.10735841476012    0.46301503109984
C          -3.56777802224232   -9.09541749934723    1.43674438031778
C          -3.32637461459675   -9.72999826736310    2.71723623496880
O          -3.09866170805901   -9.28350695865450    3.81890562528333
N          -3.39349469521879  -11.10732187246458    2.42741924515339
C          -3.35749888493039  -12.09145336653625    3.48204257702089
C          -4.76894420885002  -12.46606155869993    3.92946840812566
C          -3.66228207563158  -11.34885064578235    1.10403615481458
C          -3.83315968374754  -12.64327601947438    0.55952382812332
C          -4.23216141482502  -12.80161302573110   -0.72902275033274
C          -4.57753184210617  -14.04481678066273   -1.32881492334421
C          -5.40234155019104  -14.09009509794232   -2.42470198791729
O          -5.66556921647067  -15.23308154932710   -3.12656892388207
C          -5.15422077509722  -16.36995269189104   -2.56769628397684
C          -4.37580775311460  -16.34058867823610   -1.37237207270053
C          -3.98318831823058  -17.57549542615044   -0.97488357830569
S          -4.55478968261105  -18.79322095137236   -2.05465776968911
C          -5.33278095869939  -17.62407470862322   -3.05137644068447
O          -4.05347605014383  -15.17562348169942   -0.74264287273513
C          -6.03062740550433  -12.91480971934829   -2.96744007839498
S          -5.98229831646263  -12.70482722526146   -4.68638592436410
C          -6.57432318345339  -11.12008126962085   -4.57534496816583
C          -6.84383681962825  -10.74397326111363   -3.27609854633265
C          -6.59184875734250  -11.80641277703292   -2.34085430282713
C          -6.93137689011995  -11.58163969658803   -0.97239068591400
N          -6.97736362101123  -12.61456845916759   -0.01363306496848
O          -7.05339983848773  -13.77124476037207   -0.40644681061954
O          -6.96646446097333  -12.30941502336054    1.17230923379789
C          -7.31317187062486  -10.31557984866014   -0.56915470884112
C          -7.44846267774088   -9.26365533273051   -1.46118934135969
C          -7.25166802848117   -9.45116111467226   -2.82087787795783
N          -7.47142868223741   -8.44963665650996   -3.70384794679810
H          -0.15588226435469    2.89442945922655    2.51705008718342
H           1.46874945623287    3.44144067231607    0.71961705894790
H           0.33905646471365   -0.05879057247960   -1.44708329245656
H           2.07721924498202    3.12750813598365   -1.67323947211960
H           1.75639881804651    1.57402589260150   -2.46421759729566
H           2.99231592871383    1.69588895638605   -1.21330543106995
H          -3.13020631183365   -1.33776066109952    3.63523973106133
H          -4.74573833241746   -6.28059381173151   -1.12248165397432
H          -4.59493722251085   -7.55127068153586   -2.37497834225354
H          -2.26509605182920   -6.01413356896356   -1.11315063752839
H          -2.93689880122339   -5.70800556972638   -2.71350211324292
H          -2.12738785133517   -7.24565774084192   -2.37845510183429
H          -2.81284449270064  -11.63318018737128    4.31244564942781
H          -2.80525761364832  -12.97039894928303    3.14060978576156
H          -5.24977305113397  -11.60636959086393    4.38936841394024
H          -4.72754317572433  -13.27250267082582    4.65628221176855
H          -5.37654846419665  -12.77851173269083    3.08273480969366
H          -3.72952039881739  -13.50535410333452    1.20001420206252
H          -4.34747625056009  -11.92614649183031   -1.35097976802343
H          -3.39726248188426  -17.83773549551377   -0.11919695836165
H          -5.87285081427836  -17.92199119560315   -3.92546157074093
H          -6.68220343637190  -10.54334244764624   -5.47257132411366
H          -7.53138733871369  -10.16617424242671    0.47801426748937
H          -7.73754703128882   -8.28946031377129   -1.09778862314109
H          -7.62173767531273   -7.52060175764268   -3.34977859055304
H          -7.15798612245835   -8.54019549071389   -4.65297958172293
