124
 SCF done       -233.766894278324          0.000712823974
C          -4.76799163936306   -1.98097115689602    1.33606286554737
C          -4.88007949397862   -3.34231245802050    1.35099374968480
C          -5.36560632218399   -4.10669110763913    0.27578652247214
N          -5.71670731442470   -4.79589523058547   -0.57447581167879
C          -4.45645270877155   -4.15634320766546    2.42583233536190
N          -4.13344922931612   -4.86559528910339    3.26692750275805
C          -4.09635208587984   -1.16002259265769    2.33350695208825
C          -3.82133187074558    0.10852883185513    1.78075093012528
C          -3.15615925279656    1.07380617883156    2.51422979494519
C          -2.77039159496495    0.76748124618807    3.80896489450319
C          -3.04917734655417   -0.47546821697606    4.37803636652340
C          -3.71707221070467   -1.44652433204505    3.63281504037337
C          -2.65800550846128   -0.76654886887878    5.79007970100909
C          -4.36357340268686    0.18554925407254    0.41957369137588
O          -4.27452337324876    1.07337691906670   -0.39409094371601
C          -5.12604884315499   -1.09301174021431    0.24113698048876
C          -6.06414861937688   -1.17685705403872   -0.71957862690031
C          -7.09389146610564   -2.16424490560087   -0.90155470125283
C          -8.03858358504507   -2.58672087045611    0.01322227975956
N          -8.20731232923374   -2.18139880860724    1.35088544368449
O          -9.22754088230410   -2.53159375187633    1.91376920168142
O          -7.32813234364909   -1.51627069888178    1.88072392238019
C          -8.96879955550184   -3.48934061551602   -0.63006466913048
C          -8.55700557224689   -3.68788567967417   -1.89939720453737
C          -7.37039071849931   -2.89617581100867   -2.14154524712727
C          -6.63962310962401   -2.87239643122600   -3.30907739708759
C          -5.77880915973512   -1.82696156196099   -3.76980938093677
C          -5.62530817611184   -1.94714766459571   -5.12071902984127
C          -6.29762567076309   -3.12376547052255   -5.56532041588425
N          -6.30487363077626   -3.52327896030770   -6.92114945943742
O          -5.50087079328959   -2.97883758427940   -7.65671482482900
O          -7.12167807186534   -4.34988417183210   -7.27499249004995
C          -6.83787605314586   -3.79136493650931   -4.46117382315021
C          -7.17187818936375   -5.15438889476794   -4.43717004553474
C          -7.16740779675737   -5.93295573505258   -3.30080850863335
C          -7.35173082117778   -7.32248337388248   -3.32721247154743
N          -7.37450648025623   -8.11277677626051   -2.20373873616938
C          -7.34704269293357   -7.66704092894390   -0.82866234311664
C          -8.72229996483914   -7.18999850756983   -0.37161807272133
C          -7.50246362507556   -9.47691295389205   -2.51412653511890
O          -7.54419060740843  -10.36933132192678   -1.69805384655530
C          -7.54848785422980   -9.50002684689821   -3.96662843546389
C          -7.46897586664665   -8.19069212969456   -4.43885083953894
C          -7.44458328057694   -8.25619535158270   -5.89361509908072
O          -7.39834554904368   -7.39867806512067   -6.74044321968039
N          -7.49488087107142   -9.64081693521339   -6.19039343567303
C          -7.46603062513009  -10.07366444593011   -7.56983548108842
C          -6.05054308646346  -10.42500372206656   -8.02080818120756
C          -7.54516201573944  -10.39802303661489   -5.05395749822895
C          -7.53375209793616  -11.78847679494249   -4.85066801015416
C          -7.36314844278468  -12.79969816529738   -5.75942488510344
C          -7.32922721555265  -14.16209247893614   -5.40682941437186
C          -7.74748540172462  -15.21607036194382   -6.22136109133185
N          -8.10691747119884  -15.17209929968349   -7.58162084810977
O          -8.46578571934277  -16.21424206553066   -8.09696038384471
O          -8.03094745384189  -14.10567243762603   -8.17484004542000
C          -7.89125159094205  -16.39759996348139   -5.42488987384517
C          -7.54964732458968  -16.11086175259956   -4.14036798530513
C          -7.06177179145768  -14.76117243873140   -4.07685931798238
C          -6.29254956136108  -14.18917473779527   -3.08775332884258
C          -5.50593626004223  -12.97574679463671   -3.22185944857418
C          -5.09938429244685  -12.56993351101974   -2.00223350973682
C          -5.59377305368448  -13.51716224346028   -1.02984835087642
N          -5.32661635538677  -13.41357288535667    0.35008938110727
O          -5.69212756403997  -14.32355197035206    1.07576783658909
O          -4.73610843319293  -12.42208060307343    0.73232116104022
C          -6.23438918150254  -14.56175255738884   -1.66424119252540
C          -6.73745646166767  -15.72639833982216   -0.99220841321865
C          -6.40300270188678  -16.99046716847338   -1.33950275235923
C          -6.84106573190040  -18.11820008773419   -0.59233553601689
C          -6.50172134711858  -19.40266081017789   -0.88505964377868
C          -6.86054006510492  -20.59668058670665   -0.13441978703526
C          -7.83345893778672  -20.69853563002415    0.82102435894945
C          -8.68911121027301  -19.64853947980334    1.22134817533432
N          -9.43503677582398  -18.85141284192817    1.57484315642869
C          -8.15104644037338  -21.89445872330760    1.50156083588906
N          -8.45572294011739  -22.83283706117331    2.08717646222521
C          -6.04023344573569  -21.69301576336911   -0.64089785788908
C          -5.30238236092240  -21.23732493030380   -1.74921390128319
C          -5.59011140030666  -19.81720955541543   -1.99301129132915
O          -5.17818610621802  -19.13222822403022   -2.90514512783203
C          -4.45084425472819  -22.08177939016139   -2.43805815961803
C          -4.33221485914182  -23.39174800605460   -2.00609060121063
C          -5.04660377498374  -23.86012358051575   -0.90292129092985
C          -5.90702836380203  -23.00447020083958   -0.21697803311969
C          -4.87344954084505  -25.27111146678385   -0.44182109577438
H          -2.94813306961300    2.03848510057944    2.07775508300581
H          -2.24664659178414    1.50691009962743    4.39685595235021
H          -3.94221351992126   -2.40036541994650    4.08285054454071
H          -1.81936611008985   -0.14895752410403    6.10098989339038
H          -2.39697354066902   -1.81498589819478    5.91147222003625
H          -3.49839805677090   -0.55433955007846    6.45175153867406
H          -6.08911090532741   -0.33833229555561   -1.41007043604883
H          -9.82955197321414   -3.89339649548367   -0.13320436107911
H          -9.04750628410296   -4.27519205154233   -2.65039095760524
H          -5.39486945059405   -1.02230722100247   -3.17746204089439
H          -5.09378756643711   -1.28338912899089   -5.77695732302880
H          -7.32816499111368   -5.62532227322642   -5.40221696851810
H          -6.94765945725164   -5.48145732340218   -2.34486436465079
H          -6.60548675772285   -6.87454693053564   -0.71159619503222
H          -7.04074285041818   -8.53192070218943   -0.23451691744294
H          -9.06703190799789   -6.36280106370553   -0.98703752638462
H          -8.66678404117395   -6.85674036310185    0.66033123301071
H          -9.44307344565983   -8.00175623253125   -0.43565513589074
H          -7.82908692972275   -9.22744963412418   -8.16012438732942
H          -8.14956219977908  -10.91371090172030   -7.70527021736228
H          -5.42282320021702   -9.53767678221474   -7.99709080821873
H          -6.07890221033722  -10.80483580748876   -9.03754129032308
H          -5.60552401011694  -11.18218543558373   -7.37911521344524
H          -7.66588248763541  -12.05068344035657   -3.80842776309822
H          -7.34577145175096  -12.59683851749288   -6.81981212843547
H          -8.23346700344216  -17.33755099443724   -5.81472015737904
H          -7.55768065965685  -16.80390516811461   -3.32562417523234
H          -5.25852817008940  -12.51994130705125   -4.15950815577662
H          -4.49900761771721  -11.71942016656181   -1.74504006297249
H          -7.30633236710568  -15.55754694797603   -0.08511562429778
H          -5.73613895752412  -17.16954288988340   -2.17172049863396
H          -7.45768828322959  -17.91262530705055    0.27331460809262
H          -3.89788802055770  -21.71505701282831   -3.28906443027524
H          -3.67285630228984  -24.06903522641634   -2.52871459090892
H          -6.45136237386559  -23.37526317037845    0.63661382911849
H          -3.99022450260932  -25.34310779686759    0.19384293735833
H          -4.73105779893801  -25.94132625786915   -1.28629266268446
H          -5.73242774138698  -25.60083327777832    0.13651496453764
