89
 SCF done       -160.033755335495          0.000321354454
C          -1.39514799736021   -0.43593430456853    0.49162809320123
C          -1.58616502106268   -1.26780037333236   -0.57742258716028
C          -2.82796646993096   -1.82067147956990   -0.95269358478079
N          -3.81589235360520   -2.23960184476083   -1.36010132143779
C          -0.58067947553290   -1.57636139778640   -1.51977170405040
N           0.20086949349891   -1.86606088059442   -2.30831401786249
C          -0.21047856353490    0.38477902919030    0.73743159890464
C          -0.53030586711875    1.38168901557604    1.68013084429313
C           0.40404783967798    2.32642831321188    2.06178323697744
C           1.66941307140310    2.26599386018085    1.50109077928505
C           2.00904285781801    1.27711141525723    0.57863021433813
C           1.06063813781804    0.33028590768199    0.19386447807590
C           3.39271027157796    1.21210669525294    0.01669600280648
C          -1.91529573081301    1.20191067227972    2.14360136339870
O          -2.54679452558939    1.87719010649096    2.92311093017941
C          -2.37990012921106   -0.05406516763093    1.48391129742235
C          -3.46413126102025   -0.71236048766153    1.96983033479262
C          -3.83255266409445   -2.00697764556795    1.66926038895801
C          -4.12055047958726   -3.17355219131840    1.44922479998151
C          -4.40726586463467   -4.44195072162541    1.13837106211074
C          -4.65055464129717   -5.59220375102823    0.81267587993041
C          -4.88830637657606   -6.89630032837147    0.42011439708082
N          -6.08342454999160   -7.31897452717074   -0.11012502456612
C          -7.21844443194244   -6.47088403679417   -0.37955514574469
C          -6.98425662324190   -5.58206774347320   -1.59785682528401
C          -6.04704765204294   -8.68259052811567   -0.44304984633687
O          -6.98804413896692   -9.27857265729022   -0.93127885627252
C          -4.71834004931536   -9.10917346334011   -0.06063075723834
C          -4.03012863938828   -7.98374766033861    0.46851037131638
C          -2.70078346309064   -8.39972105630035    0.85586332625780
O          -1.76634250322436   -7.80748763876537    1.34853649884014
N          -2.66700363627744   -9.76936059327595    0.51786260584399
C          -1.50088426053924  -10.57114506383042    0.79556563582955
C          -1.67374151979142  -11.40870724498480    2.06057672489021
C          -3.85666766549255  -10.20251140896535   -0.02256037394866
C          -4.07959348417021  -11.53201252306481   -0.46508599212664
C          -5.26082093391065  -11.93192978486370   -1.00008875125243
C          -5.52833670229265  -13.24368306686497   -1.47575802438588
S          -7.07663606954923  -13.58636938467912   -2.17768323679916
C          -6.61771596538973  -15.22154305395216   -2.48616565457072
C          -7.46427961476850  -16.21070930935821   -3.08873388522453
O          -7.11293027215263  -17.35666953102971   -3.27733221002821
C          -5.32248373246582  -15.48519380295031   -2.04470714785569
C          -4.71380667276586  -14.36616226911633   -1.48055520916288
C          -4.73936571191397  -16.81277717034613   -2.20738576920548
C          -4.71931889103570  -17.71609918775160   -1.21278904655942
C          -4.23187977003292  -19.08979563976519   -1.23995718072624
C          -3.41224948272022  -19.63639015266491   -2.18407440561629
C          -2.88143692197001  -18.92227990348122   -3.28116011259998
N          -2.39364792994641  -18.38773623472318   -4.17160994906345
C          -2.94967037578393  -20.97026873472973   -2.15970395084120
N          -2.53950952693200  -22.04136683087138   -2.18965747663542
C          -4.73437860293407  -19.74474943649472   -0.03835183188725
C          -5.41325349616448  -18.80069217182239    0.75674802463647
C          -5.40288393517068  -17.48833276445832    0.09469856638144
O          -5.86335677960207  -16.44322146402680    0.49719875581157
C          -5.98640407535500  -19.16446788514928    1.96149386587461
C          -5.88110543878004  -20.48331486281343    2.37099318437022
C          -5.21845798615792  -21.43405949593158    1.59506014321921
C          -4.64080036563835  -21.06094112232518    0.38291586820138
C          -5.10441765630268  -22.84790103361233    2.06720436823734
H           0.14130503304934    3.08842834143309    2.77926232294342
H           2.41319984272420    2.99637183459075    1.78400724035126
H           1.33317923758902   -0.43621995355047   -0.51406392465626
H           3.83407945593958    2.20345294700116   -0.05000913528482
H           3.39022236590031    0.75350989216001   -0.96882760527894
H           4.02432556144969    0.60624614041172    0.66743867532124
H          -4.05197934047596   -0.19264625137440    2.72141068696206
H          -7.42236802885649   -5.85730341261244    0.50373081285724
H          -8.06405424641708   -7.14061373827039   -0.55838158176544
H          -6.13863600183396   -4.91713456348568   -1.43498657774750
H          -7.86811109892838   -4.97940217038739   -1.78604368623783
H          -6.78706766601404   -6.19355362106845   -2.47522725247442
H          -0.67770832440700   -9.86441756283365    0.93466035859638
H          -1.27641351947210  -11.20587799801913   -0.06650067769456
H          -1.84589508470254  -10.75747429661428    2.91395383030307
H          -0.77387864543040  -11.98958993978312    2.24345673338146
H          -2.51838761736158  -12.08828518626405    1.96881899370011
H          -3.26302924803060  -12.23231291436450   -0.37285347149017
H          -6.07004681696565  -11.21828411464658   -1.08660222594055
H          -8.46882702873294  -15.85563758798077   -3.37733551962459
H          -3.71548526773711  -14.38017230318771   -1.08337966228382
H          -4.35592409293129  -17.04786801175965   -3.19173073509057
H          -6.50394025837023  -18.42859648353337    2.55756735081408
H          -6.32332974277316  -20.78773110624160    3.30836190702960
H          -4.13596800490725  -21.80391469938699   -0.21384899883813
H          -5.94498727732680  -23.11754314803972    2.70170050517421
H          -4.19034540950772  -22.96688650507238    2.64997800680204
H          -5.05490349971735  -23.53493758988832    1.22626986814846
