84
 SCF done       -149.462782469791          0.000549725006
C          -1.75226059255888   -1.24566914890375   -0.03079037275334
C          -1.70343154269790   -2.28771175642616   -0.91643645768318
C          -2.84046805792270   -2.94466748931522   -1.43073745310173
N          -3.73041918398221   -3.45191749597118   -1.94813644694790
C          -0.51508505276883   -2.73905824622140   -1.53017452538587
N           0.42457374929428   -3.14361977305368   -2.04994177103652
C          -0.65029584755738   -0.33903589711337    0.28914788791370
C          -1.17150372002784    0.81574447647727    0.90514492850207
C          -0.34528723714156    1.86167783524951    1.27101926790114
C           1.01354815211249    1.74539005806577    1.02596657323383
C           1.54920909657188    0.60364001919688    0.43245392551920
C           0.70960246774798   -0.44603828844886    0.06062258193604
C           3.02302637886140    0.48512784527238    0.21109358831642
C          -2.62555998032634    0.67100847671804    1.08200366038105
O          -3.41337470331715    1.46319697124744    1.54665029799118
C          -2.93342604150914   -0.71128456645547    0.61400672495174
C          -4.10533423469060   -1.30161700234969    0.97287128992221
C          -4.40535002941370   -2.64336083980865    0.88954404180790
C          -4.66089995205703   -3.83868899924813    0.89081754075768
C          -4.89837693650300   -5.15272615329891    0.85876483843098
C          -5.09958735289371   -6.35641171611515    0.82763422315122
C          -5.27780323614946   -7.72438929496218    0.77673765094466
N          -6.51119709793298   -8.33422540628856    0.81662810286264
C          -7.77279523860273   -7.64971189225547    0.95208522757730
C          -8.01636253021563   -7.19884204292755    2.38978043613505
C          -6.40037617354614   -9.72944058448720    0.74720682389174
O          -7.35604440459259  -10.48381788173225    0.76392142747965
C          -4.97786612412106   -9.97177164227220    0.65496182362778
C          -4.31391335087390   -8.71758515131925    0.67516417191664
C          -2.88857655189873   -8.95396282888963    0.58994630863057
O          -1.93261569996041   -8.21210768973825    0.58503284056075
N          -2.78582001040925  -10.36031777735268    0.50429473784626
C          -1.49742955977327  -11.00616649617844    0.44450904919789
C          -1.06272866161566  -11.53631155692104    1.80896681092394
C          -4.01484834658362  -10.97467667071639    0.55087948381486
C          -4.20074571313128  -12.37907785458002    0.49269153697144
C          -5.43263923435175  -12.94891092881215    0.56268721815231
C          -5.64003628919344  -14.31335024342464    0.53821502354165
C          -5.85150306449065  -15.51770227565442    0.53086764079256
C          -6.08666636860442  -16.83237035677316    0.54266205201315
C          -6.28643236129719  -18.03893004724301    0.53657993991252
C          -6.57013674149471  -19.38658724320571    0.61828185651725
C          -6.16621565153807  -20.29027624573212   -0.31602950674304
C          -6.39193521468244  -21.72121512087088   -0.35890303127713
C          -7.05249327258455  -22.47843130891619    0.57108686484577
C          -7.63358052319744  -21.97269354612284    1.75325154941383
N          -8.12289680273788  -21.62125919585904    2.73062540542791
C          -7.23792864293463  -23.87419947382020    0.47684866711895
N          -7.42207347946044  -25.00701489266528    0.46329590396167
C          -5.77195471091092  -22.21740879775157   -1.58616223462174
C          -5.17498187164433  -21.14189086057866   -2.27240806440280
C          -5.38506292161136  -19.89415797936806   -1.51957346680922
O          -5.01148189678253  -18.77725567523443   -1.80130318387363
C          -4.51565595470039  -21.33786563355029   -3.47021954260154
C          -4.45266662549109  -22.62279707193635   -3.98739369316521
C          -5.03655544978806  -23.69933933367577   -3.32439771040689
C          -5.70115622704719  -23.49408638875831   -2.11466013865318
C          -4.97094686497200  -25.08047550622525   -3.89332640033573
H          -0.76081872655997    2.74321312020729    1.73445719086648
H           1.67565110046248    2.55300053742466    1.30201150996441
H           1.13259509710617   -1.32903747155827   -0.39152526006809
H           3.48182515994799    1.46399588168382    0.09683709757402
H           3.23472114584504   -0.11539711370298   -0.67012078644287
H           3.48421905111537   -0.00593847886074    1.06877636228629
H          -4.84284653709576   -0.66065735810511    1.44836253841933
H          -8.54471645178051   -8.36124816299829    0.64673602726907
H          -7.78431206081897   -6.78860638359097    0.27679077274003
H          -8.01580011083813   -8.05761758836445    3.05711621506144
H          -8.98029772867557   -6.70330471096595    2.46141054644519
H          -7.24193304740033   -6.50423660410207    2.70905457962325
H          -0.79240172882057  -10.24024059939972    0.10897030639647
H          -1.52342857585116  -11.80989862558670   -0.29658078973429
H          -1.00129940401437  -10.71726224657436    2.52141693109603
H          -0.08358302036794  -12.00010000414498    1.72822857758743
H          -1.76891973941430  -12.27256740643427    2.18708099729699
H          -3.32738602586767  -13.00930937676823    0.40030223887762
H          -6.31930620629510  -12.32961802289344    0.65909397129116
H          -7.14755538711335  -19.69440255174779    1.48192528059649
H          -4.06430723165645  -20.50166273623663   -3.98167704143838
H          -3.94131796922494  -22.79535347017075   -4.92308279678361
H          -6.14930306872559  -24.33666279813260   -1.61264473929409
H          -4.33978886157861  -25.11375445102372   -4.77712908215024
H          -5.97009528320985  -25.41885748142728   -4.16619259023127
H          -4.58066089921140  -25.77695130942813   -3.15321398214766
