94
 SCF done       -169.862484034910          0.000264796365
C          -3.60034092654808    0.76292659520608    0.15545475656320
C          -2.50385668102919    0.05038892263042    0.54615359577222
C          -2.12954622506516   -1.18223055339608   -0.03207445446624
N          -1.74779032199229   -2.14357175620484   -0.52857396900786
C          -1.55811851789724    0.52082656704151    1.48205004527521
N          -0.76401795902905    0.86661361757953    2.23423920881535
C          -3.88960229871971    2.15144090227923    0.50018656643321
C          -4.77390336128374    2.68618334422784   -0.45848336387374
C          -5.17699228666232    4.00767430154324   -0.39368900104148
C          -4.69555706998920    4.79335509414276    0.64046392712860
C          -3.83157274992199    4.27684213116919    1.60598070411914
C          -3.42588036549133    2.94474141262889    1.53405487620903
C          -3.35383910731552    5.13642490228396    2.73142825004035
C          -5.15024783338882    1.64543284983064   -1.42670530731439
O          -5.83731366991827    1.74158750410876   -2.41526517676007
C          -4.54241376574854    0.38733642839886   -0.88547965415239
C          -5.00714162483109   -0.81564294002998   -1.28709906187194
C          -4.81447817125140   -2.06101925114491   -0.62470904647896
S          -5.02932733210334   -3.59867705185778   -1.44091358582804
C          -4.66379234619995   -4.32734838613541    0.12009199716616
N          -4.45329821719574   -3.43346229734247    1.04649195763357
N          -4.52833529314916   -2.20457894293526    0.64013719383057
C          -4.61561274341743   -5.73707170666436    0.28939328925045
C          -4.38731944506923   -6.30588659003363    1.49815912435280
C          -4.33176314868481   -7.68112806474176    1.84662818730098
N          -4.35865406370874   -8.80106336862264    1.04147120114652
C          -4.29711015778289   -8.88732976754251   -0.39832753881790
C          -2.93244141950856   -8.47080406698603   -0.94008542925754
C          -4.32819316618213   -9.98733514728247    1.80050328070665
O          -4.34355947585127  -11.09739429190019    1.30427963826758
C          -4.28977385464289   -9.54433246193385    3.17395329727803
C          -4.28128757878962   -8.13020276852532    3.16426806374397
C          -4.25181897637833   -7.66942321969674    4.53804090415662
O          -4.23566830465666   -6.56408792100035    5.02938775711043
N          -4.23362862727185   -8.86178966528802    5.29545980229191
C          -4.24570429941366   -8.82942482400837    6.73808490589825
C          -5.64484629037009   -9.06915257800424    7.29993043587439
C          -4.26779359972802   -9.97957087620626    4.49981527091113
C          -4.28430418282934  -11.30688268494147    4.99923562468140
C          -4.34706378740906  -12.38834883170375    4.18318770204697
C          -4.39854197647974  -13.71409039491105    4.68814727241499
S          -4.50382541027049  -15.11235507345419    3.63076003920753
C          -4.54138541060681  -16.06296416039729    5.10779544213036
N          -4.47057855969590  -15.32047853167921    6.18088741051848
N          -4.39383643720163  -14.04548541309920    5.95446513100215
C          -4.66421795938068  -17.48038557042215    5.08635067790413
C          -4.71572690497774  -18.21682344764587    6.21941046597105
C          -4.84669285918368  -19.63354678055547    6.28996217160720
C          -5.49886725691613  -20.46746393951891    5.43386215610481
C          -5.55511332298446  -21.91691057646485    5.56616052666157
C          -4.66533255869143  -22.69992303204256    6.24899717724758
C          -3.53043293295422  -22.22001586379747    6.93902436726866
N          -2.57875972546616  -21.90917580778909    7.50055332693211
C          -4.74105011428576  -24.10787852700509    6.31517599703192
N          -4.75267262274429  -25.25166031908322    6.40885597035584
C          -6.66956372781440  -22.39507724406233    4.75611681337849
C          -7.22041714339181  -21.30493147161956    4.06008583060547
C          -6.48923272070955  -20.07025960818764    4.38848266911911
O          -6.69350162844623  -18.97059288768036    3.92442567994929
C          -8.29236999366608  -21.47079483057196    3.20262243012235
C          -8.81433780671493  -22.74322063755039    3.04151158129181
C          -8.28541168548591  -23.83706912045335    3.72669939075792
C          -7.20623597150673  -23.66096041808116    4.59093223098542
C          -8.88831653636688  -25.19398295664881    3.55249872819159
H          -5.84857166823602    4.40598286802301   -1.13850748571755
H          -4.99514816485339    5.82908303707544    0.70577482479732
H          -2.76556083931918    2.54663461932076    2.28834542502237
H          -3.34716842741568    6.18567537040542    2.44745845425956
H          -2.35509573802125    4.84297406786858    3.04489034926974
H          -4.01970167514674    5.02241986710691    3.58754639829184
H          -5.65214735979056   -0.82481935785172   -2.15828732595064
H          -4.78559260415886   -6.31150578352279   -0.60619510546831
H          -4.25873188582892   -5.64135144019697    2.34356798135201
H          -5.10418850429765   -8.30026021562516   -0.84391676919435
H          -4.47485502889498   -9.94187049894078   -0.63227417823512
H          -2.68919200877878   -7.44860993212790   -0.66029845833315
H          -2.92874014216508   -8.54849473570275   -2.02384639283662
H          -2.16235170349970   -9.12779860389372   -0.54331537150640
H          -3.90419182500516   -7.82931913290279    7.01959968634571
H          -3.53909193430037   -9.56782619388082    7.12597061642546
H          -6.32735524602976   -8.30599897899584    6.93396408910713
H          -5.61754747292652   -9.01921289567442    8.38473186396823
H          -6.02285863194423  -10.04512478680181    7.00403493487624
H          -4.25432586415662  -11.46551149970012    6.06708328267128
H          -4.37337225208055  -12.27003008307971    3.10865548157950
H          -4.70279305954459  -17.94107946473825    4.11251268007809
H          -4.58592858039238  -17.69906890198487    7.16110631778474
H          -4.41100028084411  -20.07757712385010    7.17842830785444
H          -8.69929197400816  -20.62176686354026    2.67530431174692
H          -9.64814138631793  -22.89772084606178    2.37239868048379
H          -6.80864320692715  -24.51114815555152    5.12168846736936
H          -9.22911348961617  -25.33913527793261    2.53000557956262
H          -9.75157271394223  -25.29963068916764    4.21045567019642
H          -8.17414582141429  -25.97303631772042    3.80580823722148
