60
 SCF done       -112.072181625792          0.000896410310
C          -1.16301543322298   -2.22957281795065   -0.40752345551184
C          -0.80521749004926   -3.41033505642978   -1.00143339408802
C          -1.70812160819840   -4.31083265560954   -1.60219293886124
N          -2.37176905578187   -5.04947176422204   -2.17796151274895
C           0.53063798431170   -3.82348531232428   -1.19158493717544
N           1.59499896028246   -4.22062164626442   -1.35516833443595
C          -0.25074135153047   -1.14008430406133   -0.05733077497920
C          -1.00224805979795    0.02251511616711    0.20324399602880
C          -0.38259189400566    1.21831391626511    0.51157907261852
C           1.00202847899220    1.24881448463523    0.56659333912627
C           1.76212023783240    0.10641267940784    0.32591299223498
C           1.12992128509987   -1.09691584817325    0.01111741872611
C           3.25374480736586    0.14941138935632    0.41908100031793
C          -2.43784164461720   -0.28555198288022    0.10853106784665
O          -3.38156602655217    0.45879119153507    0.25285032701592
C          -2.50427858929257   -1.75119956078385   -0.15421046706795
C          -3.68724881646193   -2.40161659036440    0.02845385559688
C          -3.91427530110299   -3.75522113704638    0.08100738085076
C          -4.18496834773563   -4.94659944231042    0.18972203271874
C          -4.43160841509308   -6.24796454974381    0.26450440757851
C          -4.65584131966572   -7.45705853427477    0.31973955433301
C          -4.88882897635332   -8.75762631683537    0.35783194173409
C          -5.09990163267446   -9.97213757061114    0.37885817715674
C          -5.31866354416158  -11.27463179089778    0.38286970134998
C          -5.51489641585599  -12.49191468934499    0.37239064842617
C          -5.72114970165002  -13.79696371542103    0.34312343558134
C          -5.90570557184934  -15.01395096268996    0.30405997271223
C          -6.10417652409440  -16.32342403173540    0.23926980282368
C          -6.25276095522773  -17.54008217993558    0.19228145094083
C          -6.49041490599246  -18.88911447565258    0.06134098040474
C          -5.77508549884090  -19.83665825213839    0.73221202822316
C          -5.89608317504588  -21.27826770644529    0.68447532942384
C          -6.80651624469777  -22.00519342197799   -0.03610587346613
C          -7.80000897188214  -21.44677333774410   -0.86740059287807
N          -8.62704690107939  -21.04859715989329   -1.55714151765176
C          -6.87667668013909  -23.41427434157142   -0.04129882175609
N          -6.98869235850621  -24.55566278820296   -0.08923805490972
C          -4.86086289205737  -21.82545924608267    1.56047372836343
C          -4.13722620089448  -20.76580164275876    2.14151057594243
C          -4.67052191941728  -19.47996384151148    1.66228219184260
O          -4.30297258779189  -18.36178973457006    1.94856072878395
C          -3.09550863615993  -21.00759753479330    3.01541064899128
C          -2.77234939060724  -22.32348827072864    3.31012429625557
C          -3.47383485968009  -23.38500665734459    2.74445643316546
C          -4.52663146877076  -23.13314113638065    1.86347940030571
C          -3.12072491157989  -24.80099110138956    3.06997784366127
H          -0.97365761672192    2.10128344688017    0.70013317034064
H           1.50522877767216    2.17506192941312    0.80242733815249
H           1.72825273427572   -1.97607281014427   -0.16796647035593
H           3.62362639180719    1.16775385470828    0.33318483018552
H           3.70547279996300   -0.46224504257523   -0.35865434170888
H           3.57394642800144   -0.24969207185853    1.38204061845528
H          -4.54787251350914   -1.76219697600762    0.21499899311906
H          -7.28357249968984  -19.16701872313383   -0.62261737687881
H          -2.55257760641116  -20.18278829874652    3.45070709232586
H          -1.95991747300974  -22.53220528061427    3.99069284596392
H          -5.06064280000273  -23.96502508317634    1.43262829866851
H          -2.23552369646409  -24.85257687666135    3.69795267433127
H          -2.93923514867906  -25.36499989372173    2.15653751243835
H          -3.94744525299740  -25.28138384173488    3.59227972892361
