100
 SCF done       -177.839528432720          0.000510829102
C          -4.81074082228886   -0.67597006652296   -3.72084716663061
C          -4.91526215538884   -0.56841595837100   -2.35947571164433
C          -4.27444543736911   -1.44077174981552   -1.45714477828321
N          -3.74334067503113   -2.11230780512698   -0.69275547619169
C          -5.59755583088125    0.47783292004631   -1.70367821009104
N          -6.14935339566544    1.29947459860355   -1.12287376339942
C          -5.22932860199365    0.34494327407941   -4.68030122779710
C          -4.53428057924536    0.14542206566076   -5.88829495916485
C          -4.70207236514125    1.00645588335319   -6.95670356872710
C          -5.57886067975403    2.06936246286860   -6.81390416109745
C          -6.28860750667374    2.27312382648739   -5.63094532793141
C          -6.11172697025015    1.40312353943739   -4.55576841033498
C          -7.25332581318579    3.40952169031122   -5.51899526622241
C          -3.69245528446974   -1.05598063884058   -5.78171963291156
O          -2.91915084432715   -1.51025815889219   -6.59180168987052
C          -4.03271902386763   -1.65417813557809   -4.45222685789681
C          -3.65622655678014   -2.93475992551603   -4.20393304572749
C          -4.11906653107986   -3.84836874908989   -3.22299945890136
S          -3.15498719882461   -5.24668741191367   -2.83842681807432
C          -4.33081239531191   -5.83515120109837   -1.71383069766765
C          -5.44279104930813   -4.98062077969412   -1.68148659230022
C          -5.31104616748403   -3.87038275561302   -2.52476536217657
C          -6.60202841911377   -5.18884189563750   -0.91626979971081
N          -7.57338989872808   -5.33012725726796   -0.32098470147569
C          -4.06265798185570   -7.03177940896914   -1.00927351898753
C          -4.85558817372812   -7.57269991137902   -0.04448448234555
C          -4.52900402185927   -8.78689613539229    0.60422129541054
N          -5.30473455596462   -9.36400123066871    1.58003485985622
C          -6.57273995237436   -8.88040904261984    2.07279351628853
C          -7.71500492107936   -9.18173381993228    1.10624985662638
C          -4.74912079349200  -10.57047263736783    2.05472979220823
O          -5.25619529901649  -11.25449993515975    2.91615164206863
C          -3.52660024343445  -10.71507242749139    1.29274396044570
C          -3.41784732916488   -9.61356147052631    0.41606712571903
C          -2.19629070170095   -9.77741090358431   -0.33520275326708
O          -1.67987454934195   -9.10374865518349   -1.20650746377189
N          -1.64032687346060  -10.98119625077534    0.13989849043262
C          -0.36555322155400  -11.41651800426750   -0.37693249080061
C           0.77988161547905  -11.08585379103588    0.57759803787859
C          -2.42518426257280  -11.55336494617226    1.11959124961045
C          -2.25569281311072  -12.75786263515602    1.84537651402358
C          -1.25170125645032  -13.67032206469628    1.79128608238862
C          -1.20925320944781  -14.85599145664264    2.56725364519881
S          -2.45710282347778  -15.31707397274618    3.69474337987635
C          -1.60844115636615  -16.77153637965209    4.11940644751685
C          -0.40990593481214  -16.87066405742749    3.40136499830706
C          -0.19380562398886  -15.79519000524351    2.53477510197984
C           0.48104020656679  -17.94945012265123    3.54045644001271
N           1.21585197720004  -18.82368717095368    3.64264001619054
C          -2.08324671640476  -17.70897203851271    5.06211115366205
C          -3.25631233229830  -17.60262922110605    5.74317190414158
C          -3.65732263145455  -18.58744064977298    6.67379653846561
C          -4.81857806736698  -18.56028396760848    7.39135584610679
C          -5.26853847676596  -19.54294345936891    8.36069731186041
C          -4.61213824521169  -20.68046278435104    8.75092110048797
C          -3.35702292949251  -21.11528728292757    8.27401717079702
N          -2.34311282380526  -21.54053228306584    7.94249672961992
C          -5.10671542552894  -21.59569974387078    9.70495712581757
N          -5.44618600616392  -22.38132208540302   10.47019208183969
C          -6.56733702753599  -19.10104068072583    8.86465325533975
C          -6.91386032517220  -17.89120719155270    8.23849108221675
C          -5.85356967165606  -17.49282026790049    7.29852744898058
O          -5.83623497323980  -16.50307384648163    6.59819567120095
C          -8.10160696672705  -17.24655773759393    8.53150809842746
C          -8.94945991006370  -17.82139144395229    9.46255744852754
C          -8.62434162249516  -19.02151603349201   10.09588204599612
C          -7.42631351941166  -19.66458416610936    9.79435587588605
C          -9.56543919847681  -19.61037939419365   11.09789937461656
H          -4.15457629077648    0.84576247043163   -7.87251637051982
H          -5.72044786759427    2.75736106874226   -7.63441111227842
H          -6.66983429945678    1.56190310552814   -3.64643716957998
H          -6.91359132972784    4.26616497461349   -6.09606547122091
H          -7.38585950283031    3.70637504203666   -4.48187851320666
H          -8.22513468151879    3.10645831362915   -5.91040489542853
H          -2.93290447997986   -3.33475481706649   -4.90911201658427
H          -6.08835188476727   -3.13610301501977   -2.64686688035741
H          -3.14330029169545   -7.53733545014558   -1.27774689697177
H          -5.76529843060726   -7.07356010159235    0.25120904568861
H          -6.50609869775598   -7.80679972675507    2.26815246824851
H          -6.74483358509668   -9.40292775711405    3.01798947368242
H          -7.56411811173630   -8.68192900707057    0.15224866295308
H          -8.65218723268801   -8.83549142203585    1.53197087349786
H          -7.78420595340707  -10.25305729649814    0.93338547512764
H          -0.22307958888553  -10.86516623131963   -1.31171380560898
H          -0.40579490575394  -12.48330049015173   -0.61024909721162
H           0.85514804902254  -10.00819747182675    0.69907307171439
H           1.71776960839861  -11.45437808398668    0.17097165335658
H           0.62038993312127  -11.53023710470827    1.55758150444254
H          -3.07298571224361  -12.94262005387172    2.53372413232162
H          -0.40303531658937  -13.54198848129870    1.13776718521821
H           0.67469424117507  -15.70629956446676    1.90606044123251
H          -1.44252050086160  -18.56753356858376    5.23224864333929
H          -3.90509981961161  -16.75343828953990    5.57947195559987
H          -2.97559542633877  -19.41708360852028    6.81227790306953
H          -8.34779730836846  -16.31853635485367    8.03891759553446
H          -9.88302169118298  -17.33683457062775    9.70889562058077
H          -7.18592665665243  -20.59158267068576   10.28911910798519
H         -10.53818719847295  -19.79057038289173   10.64231389775169
H          -9.71267293411645  -18.91956548356098   11.92718276635980
H          -9.18322916041324  -20.54894102878648   11.48955443137600
