106
 SCF done       -191.585426429105          0.000515650912
C          -6.19889118385173    0.30580561168434    0.86861860394665
C          -5.58422417655752   -0.60656577374609    1.68045004092138
C          -4.49917773870809   -1.41381104843566    1.27774513817303
N          -3.59334422196983   -2.06750473521586    1.01582010707445
C          -5.91667121603507   -0.79579750212129    3.03884470157944
N          -6.16360809045642   -1.00031266786433    4.14049838684282
C          -7.15718545540753    1.31813042239985    1.30397713450224
C          -7.18017525400719    2.36080865208581    0.35787231332030
C          -7.97678782807844    3.47522424450179    0.54700879601152
C          -8.76077859354163    3.53791081018001    1.68687660297205
C          -8.76383151882434    2.50666695879378    2.62655172872599
C          -7.95417192451653    1.38897343393631    2.43337933069239
C          -9.64980225718707    2.58921260082494    3.82763422765518
C          -6.28662101020563    2.03296442234123   -0.76388008296745
O          -6.00015808238699    2.70774435821438   -1.72308129677059
C          -5.83629278379748    0.62640897217184   -0.50201156244406
C          -5.31016145223439   -0.09442851114712   -1.51469184190902
C          -5.11411884424756   -1.52032652169872   -1.62067680698896
C          -4.10298282775995   -2.01126819479625   -2.44432373948961
C          -3.89647658398133   -3.37308491674219   -2.57123195942777
N          -2.76348517754232   -3.80789764259869   -3.34958440652381
O          -2.30248573916443   -3.02019766978921   -4.14736054176351
O          -2.32638412975067   -4.91953537326745   -3.14388781588224
C          -4.71686990168053   -4.30950449195360   -1.91986213823640
C          -5.74349330863261   -3.79993201475800   -1.11481723535265
C          -5.93793831037232   -2.44746938949482   -0.96513887729458
C          -4.58156484295999   -5.73301623573881   -2.12610086127850
C          -4.67938789867682   -6.64334403750296   -1.13647175260323
C          -4.57496562030398   -8.04187883135440   -1.39008946412148
N          -4.44869574594866   -8.99641493010518   -0.41014265177635
C          -4.44046141159933   -8.77739402957262    1.01575935553392
C          -5.85447158985068   -8.63036356595867    1.57318868413093
C          -4.34385204882756  -10.29311962474496   -0.94672351635311
O          -4.18165594506574  -11.28521348802381   -0.26317013289896
C          -4.44402259072955  -10.09691973251422   -2.37559920863618
C          -4.56855943964073   -8.70043787658300   -2.61278778295059
C          -4.64121803771372   -8.49584525110757   -4.04002487015365
O          -4.76529816705404   -7.49361672610889   -4.71753280481868
N          -4.53345283993447   -9.78882050596466   -4.58140155036331
C          -4.62199149993472  -10.01063285244690   -6.00322187198233
C          -6.00788968993830  -10.50009809820896   -6.41708764195450
C          -4.43175790433786  -10.75098574574583   -3.60258178363068
C          -4.32173946298646  -12.14501706524875   -3.87031160507191
C          -4.37906381938668  -13.05486208969703   -2.87425491732254
C          -4.22545463633640  -14.47482415630209   -3.01515079730221
C          -3.75117064084649  -15.14820744247096   -4.11206526313915
S          -3.59512223192991  -16.83304171448690   -3.84756120045352
C          -4.15295434075917  -16.67406483905768   -2.23682384526379
C          -4.46410378023179  -15.38396412056037   -1.92580022806861
C          -5.03149600842736  -14.96596112903348   -0.63618359727913
O          -5.85910576462689  -14.11412401980677   -0.46965549044400
O          -4.49648024460561  -15.70279270999185    0.38447663200134
C          -4.78743543053983  -15.33641671818648    1.65131381489050
C          -4.28439981601001  -16.01056625311866    2.70015482591102
C          -4.53977812667444  -15.58609200898867    4.03205968856974
C          -4.04568191993590  -16.19106828489245    5.14598602920469
C          -4.23841919848816  -15.77381508423125    6.52641985153064
C          -4.98419588177754  -14.71677226690622    6.97328679388906
C          -5.71532741254049  -13.81875981033709    6.16589340616041
N          -6.33648397222485  -13.04127905146828    5.59293932050091
C          -5.13455807738571  -14.36890643502307    8.33337448710920
N          -5.30366940423858  -14.02884233744916    9.41658940564350
C          -3.48373024927287  -16.69448489647333    7.37332759594318
C          -2.86361731731671  -17.65984868032003    6.56141878340262
C          -3.18261529420543  -17.40542001765999    5.14720737347084
O          -2.81450481602466  -18.05738708711891    4.19330507150707
C          -2.08127229302722  -18.66083961828386    7.10722792284749
C          -1.91619499834581  -18.69170911186787    8.48117743473252
C          -2.51890131116366  -17.74048943825978    9.30491146475809
C          -3.30768823280323  -16.73723112227052    8.74732120013629
C          -2.30222560584192  -17.79370851497228   10.78370685825787
H          -7.97663132050106    4.27054651880148   -0.18214944635135
H          -9.38744316984362    4.40119483598750    1.85620494613951
H          -7.96654636704055    0.59062862091237    3.15873052390055
H          -9.71740580044156    3.61220706024177    4.19011206204030
H          -9.28346663425227    1.95022844258460    4.62671623296301
H         -10.65627894640945    2.26124327128916    3.56521671341593
H          -5.05037323061319    0.48153934808582   -2.39807332651933
H          -3.43917015181281   -1.33503278553647   -2.96291652825912
H          -6.41083843523505   -4.49496286707429   -0.62882905816241
H          -6.76365825350686   -2.09287517796780   -0.36584501048498
H          -4.39475173893842   -6.07194657431224   -3.13771636130541
H          -4.78110968485007   -6.31907613824421   -0.11012176005126
H          -3.83343782468195   -7.89807587428607    1.24724080056386
H          -3.96690584432833   -9.65948395005353    1.45590845275519
H          -6.36874053264061   -7.78684633303846    1.11731304313140
H          -5.81314332967474   -8.47697582929061    2.64791730061235
H          -6.42604752769104   -9.53325784344952    1.37321362604898
H          -3.84958344037447  -10.72037941439932   -6.31321305794861
H          -4.41846537956625   -9.04356406912333   -6.47179283210074
H          -6.25325770503076  -11.43779404192679   -5.92287114310184
H          -6.04103862524723  -10.64978995142331   -7.49278480513242
H          -6.75706968003303   -9.76044363834485   -6.14574194587693
H          -4.19775435916833  -12.45398454999657   -4.89814548142739
H          -4.55023441977552  -12.70580898848586   -1.86612880053541
H          -3.45968757703921  -14.74103898914820   -5.05919280100386
H          -4.24953667400694  -17.53975931841850   -1.61236926903236
H          -5.42341660021792  -14.46193515937885    1.75300223527980
H          -3.66162093166678  -16.87743365033158    2.53925496949480
H          -5.15893961898759  -14.70489950738158    4.13904536442718
H          -1.61604938133492  -19.39285752117435    6.46512873852341
H          -1.30883676703229  -19.46357080346977    8.93101711169098
H          -3.76808491271614  -16.00777355205475    9.39375726642354
H          -2.45888001990838  -18.80357135778067   11.15806144748082
H          -2.97387338308548  -17.11505861195710   11.30216060796917
H          -1.27653856109587  -17.50911807679147   11.01857821421138
