125
 SCF done       -236.686571970951          0.000989067723
C         -11.14119437628568    3.20956501430910   -3.89738938579424
C         -12.48852771692063    3.24100301181123   -3.57019861486835
C         -13.21911079162952    2.06975469190672   -3.41860774432448
C         -12.62188858926457    0.82951219425713   -3.58412425641478
C         -11.27754586774000    0.78573365228309   -3.91284654167787
C         -10.53171095189677    1.97719894430288   -4.07453472204451
C          -9.16564929995130    1.63647150522644   -4.43940719413034
C          -8.10106032116978    2.48922763785454   -4.52088924269425
C          -8.17749372007884    3.87817837030277   -4.27972248156876
N          -8.17489855135136    5.00994469378774   -4.09326291479022
C          -6.78091770492957    2.07657266330541   -4.79839331177116
N          -5.69081087627487    1.77709872367286   -4.99937368765968
C          -9.15630093888675    0.19669667889783   -4.69726345698345
C         -10.39570433222775   -0.34307894096797   -4.13617672065178
C         -10.57979978984708   -1.62618697606335   -3.70216353787273
C          -9.56591923093782   -2.60039440278644   -3.70396939054399
N          -8.76444890129302   -3.41917649037024   -3.61782504209883
C         -11.77853688085097   -2.10797279855773   -3.13380617156057
N         -12.72486555679909   -2.56674688575383   -2.67608660682159
C          -8.26630690784823   -0.45051454504105   -5.48900473147029
C          -8.41497181021592   -1.73234015483428   -6.10836948734912
C          -9.54120686702589   -2.26278861143070   -6.74218635204046
N         -10.78943632705819   -1.67146296948327   -6.98041583957975
O         -11.59921198830386   -2.31100862163749   -7.63006719796486
O         -11.01931862865953   -0.55084076536171   -6.53546603651092
C          -9.20617604359798   -3.53388199919741   -7.32407432964945
C          -7.92636475691988   -3.82888617479098   -6.99802923949067
C          -7.37178266230461   -2.74175825475629   -6.22502415353962
C          -6.09809766929821   -2.73225271890636   -5.67294366861511
C          -5.25339464610219   -1.63229321899243   -5.37267374167799
C          -3.97698617650590   -2.09167946866339   -5.17342198356583
C          -3.97144677945644   -3.51285628397545   -5.25307829864714
N          -2.83383282390095   -4.29434034173928   -4.98134443255713
O          -1.76679537608221   -3.71187582356814   -4.89604588218063
O          -2.97041473166673   -5.49907892188050   -4.84313700592723
C          -5.27230808219180   -3.95857069686094   -5.50275994265724
C          -5.72553582011091   -5.28204588338246   -5.45558204812889
C          -6.99113719610835   -5.65292487258641   -5.05962021793566
C          -7.43524423078265   -6.98151768612309   -5.10622026830630
N          -8.58551981199548   -7.44520156454791   -4.51494959927735
C          -9.55373714757262   -6.66094187481423   -3.78246487043331
C         -10.55452823761008   -5.99557507946378   -4.72335098523973
C          -8.78261396961578   -8.81380629980680   -4.74051017032904
O          -9.71513217247571   -9.45050984265456   -4.29714245354249
C          -7.65196781688876   -9.20888777875166   -5.56545288456242
C          -6.84903449264657   -8.07759573148834   -5.76787174283226
C          -5.76262865541773   -8.44755322052842   -6.65877110435965
O          -4.86074436348029   -7.80746654693702   -7.14809450273213
N          -5.98748835162343   -9.81489090425508   -6.92355652857714
C          -5.07353475253210  -10.58165147309697   -7.73684992753312
C          -4.14772172116434  -11.43913260957227   -6.87854596245844
C          -7.10384564341873  -10.28437104448716   -6.28997676836069
C          -7.58988879763028  -11.60095468516699   -6.44494303618220
C          -8.66116210773837  -12.06248448557662   -5.74635678123758
C          -9.26756128356447  -13.34467754043279   -5.82799634073825
S         -10.27347543860140  -13.73096861956030   -4.46037965573836
C          -9.25549956918822  -14.39441858745406   -6.75404080190389
C          -8.45190444331190  -14.48190812004252   -7.99650798265899
O          -7.77989058347623  -13.57718562696864   -8.46044997146809
C          -8.49846106824413  -15.80104299667647   -8.60619860285746
C          -7.72135634825621  -16.32121566495972   -9.61898759180042
N          -8.13158852036135  -17.58577761916035   -9.87453091749464
C          -7.46748204074567  -18.51031990382462  -10.75942231964630
C          -6.30641906465350  -19.19506833207956  -10.04098323763341
C          -9.16886714671374  -17.89834784387647   -9.06768601432970
C          -9.42986938641925  -16.81693806484767   -8.25260362395185
C         -10.40621632332182  -16.64021102564648   -7.20301400677314
O         -11.38173856691061  -17.35149351534406   -7.03057085734590
C         -10.07788814159175  -15.47779800825268   -6.34120068816599
C         -10.62628698497914  -15.30374368293027   -5.07762938702301
C         -11.35828133996073  -16.21264870043179   -4.25093796840543
C         -11.20154754587739  -17.55539401881152   -4.15423357459934
C         -12.18260725768334  -18.44498474219900   -3.52698687154301
C         -13.03678016901762  -18.13224790527126   -2.51034641274182
C         -13.06350820515089  -16.88335011915057   -1.84952987375310
N         -13.11547072292476  -15.89548515652662   -1.26871526373570
C         -13.95679074661974  -19.04353507247792   -1.94624165271276
N         -14.71926532233289  -19.74140408962926   -1.44944627612789
C         -12.04272547847713  -19.73307309884834   -4.18737236170238
C         -10.89413127135821  -19.70363706887911   -5.01346208003302
C         -10.54358631861981  -20.80973676685709   -5.77136256094917
C         -11.34423633401721  -21.93890897058599   -5.70399371154920
C         -12.46944073283301  -21.97013549462321   -4.89042066458782
C         -12.82977979635445  -20.87234802678984   -4.12404495857798
C         -10.24659426114477  -18.41495325176254   -4.86068696572571
C          -8.94825308653314  -18.11870971984231   -5.16681492199085
C          -8.11647055981746  -18.94223393606027   -5.95146489650792
N          -7.41814161050861  -19.53640685223938   -6.64238447175904
C          -8.28992203637188  -16.94543491235940   -4.74076154170645
N          -7.69111274319546  -16.03809036558290   -4.37278310413889
H         -10.59184966328530    4.12886680764397   -4.02026183806847
H         -12.97696891875322    4.19445015536258   -3.43836538531358
H         -14.26888765952273    2.12398818431366   -3.17395817650592
H         -13.19921263926092   -0.07483800203328   -3.47863270784782
H          -7.37325501519775    0.08448498356527   -5.77747694126227
H          -9.88493831210314   -4.10072437359438   -7.93157547665405
H          -7.36776685889913   -4.67869753935840   -7.33521619594687
H          -5.51698880615355   -0.59408531162509   -5.38777131637266
H          -3.10380529717423   -1.49895937935488   -4.97375212038224
H          -4.98617036029293   -6.05033335564279   -5.65751028365808
H          -7.65019259834240   -4.90706112017610   -4.63688841371790
H          -9.03717484199327   -5.91174146705005   -3.18014757790028
H         -10.07865680165087   -7.35557348349538   -3.12156223139638
H         -10.04949142196362   -5.31773202755875   -5.40852304617363
H         -11.27948674674708   -5.43025614437331   -4.14444990370100
H         -11.08406625305915   -6.74891088529838   -5.30135936365550
H          -4.48526981811661   -9.85274465118941   -8.30063905743515
H          -5.63991739178421  -11.20220846024511   -8.43583119405907
H          -3.57510791784318  -10.80916364152596   -6.20211779861751
H          -3.45567436479944  -11.98081023557013   -7.51670815045623
H          -4.71627280692910  -12.15670877433499   -6.29136729915117
H          -7.09671046137543  -12.23807733877186   -7.16094880665002
H          -9.10624991680737  -11.41175345843332   -5.00114246701050
H          -6.91071882529353  -15.86634944714908  -10.15270386155278
H          -7.10390093830355  -17.96165811251591  -11.63213115041784
H          -8.19665283392924  -19.25327923205001  -11.09098806171927
H          -5.54866075295757  -18.46620406761426   -9.76445740222609
H          -5.85449817374413  -19.93862485170944  -10.69081621365179
H          -6.65674994133953  -19.68259134511478   -9.13423360147102
H          -9.64791849503688  -18.85682520480708   -9.09812685991567
H         -12.12340101978685  -15.74812504027401   -3.64174643457338
H          -9.67596420925815  -20.79330790604176   -6.41087491990763
H         -11.09006420123696  -22.80549356095481   -6.29513400065195
H         -13.07738515230628  -22.86116904452096   -4.85553038496781
H         -13.71020817190742  -20.90980938112598   -3.50349602528492
