113
 SCF done       -216.225112061151          0.000538181884
C           3.77637166925161    2.12354490280671   -7.35391901786231
C           4.66939935605378    1.43153557428279   -6.32221477491230
C           4.62761491894757    2.86197939854063   -8.39092865470898
C           2.74058726150545    3.03635139145762   -6.73493530755954
C           1.51001564006244    2.58237913451980   -7.07257677881789
C           1.68559810510081    1.38767431317420   -7.88223442108878
C           0.71579678454095    0.60166552099250   -8.43173526666632
C          -0.65793908458317    0.86302935802352   -8.25969166999536
N          -1.78517585722831    1.03136692104523   -8.13654189357662
C           1.04756562356319   -0.53474622519898   -9.20036722887088
N           1.31225768737895   -1.46279928922068   -9.81851952225410
O           2.99053727239998    1.12688701413962   -8.01855089593070
C           0.29394813215491    3.16646504807485   -6.67126206065315
N          -0.64673401604319    3.68464717505820   -6.27426149497963
C           3.06007490411049    4.21131455193290   -5.95071007198405
C           3.17792653062942    5.49947917113282   -6.41468168488510
N           2.97440718343358    5.93060790849590   -7.74146085293298
O           3.26515234185678    7.08002838896889   -8.00692792406945
O           2.53773354199610    5.12206925071668   -8.54177750948251
C           3.61387232323360    6.36941608647358   -5.34349890326679
C           3.82677339784570    5.60937183735471   -4.25128908914884
C           3.49263400917037    4.22920475994076   -4.56460423821960
C           3.51119095159658    3.16711211583537   -3.68093673460679
C           2.61435452154668    2.06350368152162   -3.62012943173407
C           2.77441420832000    1.43716094959276   -2.41403602861807
C           3.85203757219715    2.05157541545739   -1.70462669119806
N           4.33822545652459    1.59145041595152   -0.46845297543578
O           5.29683891103841    2.17000164022550    0.02252385316618
O           3.77018867269426    0.64646954832652    0.04429351476741
C           4.36889321978876    3.09232531963071   -2.47745062129915
C           5.56118263901050    3.81056949179621   -2.30193816496922
C           6.20597427097595    4.38743208528813   -3.36882292358272
C           7.25546852236164    5.31340062082890   -3.43897438562698
N           7.98242417635657    5.95654420644389   -2.46635309955032
C           7.97807781110256    5.69253879041990   -1.04517539476446
C           8.72639248438698    4.40904949365524   -0.70033574067149
C           8.81749595353782    6.93838132404081   -3.01249432672966
O           9.57165519871852    7.63254850914011   -2.35374064111214
C           8.55646733857411    6.90500419152784   -4.44015604430622
C           7.62540278256785    5.88276743817406   -4.66716719626854
C           7.28098069810095    5.87513303545113   -6.07326986645697
O           6.52700949360093    5.17274000929990   -6.71419245008876
N           8.03735875000741    6.93121583153919   -6.61610102927862
C           7.98514140460911    7.25219359470514   -8.02375335784904
C           9.21123514451497    6.73234707531961   -8.76839216041468
C           8.79450218144866    7.55896573880819   -5.66342576051206
C           9.58849823807824    8.70932525682307   -5.87665944178036
C          10.26230948223167    9.25304249052367   -4.82977483428616
C          11.00578847584742   10.45405759185738   -4.82070225165244
S          11.45610074035947   11.31781313610548   -6.25869565592195
C          12.28221007018487   12.52125095040952   -5.32908003215976
C          12.20112252464159   12.26861384118929   -3.97874823273828
C          11.46350912872856   11.10276778666037   -3.68353735360229
C          11.14868959338309   10.66359454224204   -2.29224871836539
N           9.65840776032190   10.56916652391232   -2.05925823124539
O           9.32741078582384   10.25812186957980   -0.94957651665845
O           8.91915311872467   10.84432826547675   -2.96925472728983
C          11.68794954880869   11.64071098502199   -1.23806390988785
C          13.04366339408001   12.19576152159584   -1.65112439825595
C          12.87897462674245   13.06426850368062   -2.89992921798918
N          14.22851235700546   13.47626559990236   -3.37684416924951
O          15.02663759014825   12.60266530811706   -3.58772705031467
O          14.41560679610370   14.65926317824299   -3.53203235792296
C          12.95807557438548   13.60009609682279   -6.02584122177902
C          14.20031851236993   13.57509143178406   -6.56476204171457
C          14.43299170429972   14.86739090911424   -7.19276298443450
C          15.56056959995206   15.29451263416352   -7.82657369272773
C          16.70820206228101   14.48657038815981   -7.95933620809576
N          17.65691466928455   13.85900796170129   -8.09782498937565
C          15.62935637075678   16.58595312787169   -8.39472157389818
N          15.68735573033568   17.62992564833380   -8.86266007572592
O          13.33912604992169   15.63019454658512   -7.06625073917991
C          12.30880565434156   14.92310315594591   -6.37120150125456
C          11.88517219796237   15.73992542643533   -5.15095602937030
C          11.12660004426242   14.70594616652443   -7.32382913515236
C          15.07804798262949   12.47228350923068   -6.54738729159975
N          15.70740980326834   11.51661985772569   -6.53379562862521
H           4.07162625694009    0.93014496323097   -5.56396243043265
H           5.31987896193958    2.16045833149423   -5.84808121421799
H           5.27818829335183    0.68975511779141   -6.83223867723686
H           5.25534434504064    3.59999443371284   -7.89873642896347
H           3.98597218495717    3.35795191030753   -9.11552844818824
H           5.25451535205228    2.14102826084008   -8.90859261079865
H           3.72203105193267    7.43083187029605   -5.45110828276044
H           4.08924596636529    5.95154773510236   -3.26991177712754
H           1.84046398195903    1.86286274852396   -4.33559329198840
H           2.20374670642001    0.61213338351446   -2.03025889509150
H           5.97666632806733    3.82206734130996   -1.30427998962270
H           5.84738954956332    4.13400898483709   -4.35913031796180
H           6.94525662876833    5.65247253418200   -0.69048321062539
H           8.47434212153530    6.54831768205027   -0.57875944973544
H           8.29655689942148    3.55134063680612   -1.21189175430291
H           8.67147311158959    4.23331450579092    0.36972464938284
H           9.77185932810504    4.49573021201943   -0.98635676404566
H           7.88450141229063    8.33377886749314   -8.14481775864157
H           7.08310796048481    6.77282448436674   -8.41292949000177
H          10.12437148302592    7.17453039342521   -8.37594130951628
H           9.12866976718082    6.97833117746134   -9.82290370630935
H           9.27913320772861    5.65177483046224   -8.66992015909720
H           9.60617488976491    9.17279191793379   -6.85233205384447
H          10.21857354021229    8.73592836536492   -3.88119149347352
H          11.52632017168500    9.65128733164414   -2.10657277490457
H          11.76287804668786   11.13216191951591   -0.27790699745043
H          10.98657477154250   12.47131024258495   -1.11962967416458
H          13.73741195134371   11.38276608640275   -1.87600475137957
H          13.46036497432895   12.79329119038479   -0.83933225514907
H          12.33227096975053   13.98652842875354   -2.67326910243871
H          12.73823626959435   15.90364414445819   -4.49620426085881
H          11.09417193414735   15.22256946550322   -4.61468863006823
H          11.51685957321367   16.70564393913789   -5.48530146997385
H          11.43449875366768   14.11476644554584   -8.18404139751382
H          10.77388594465268   15.67200481325386   -7.67378709207747
H          10.31931702739766   14.19326437800172   -6.80857960457485
