103
 SCF done       -205.088171256840          0.000476208012
C          -2.57389662663980   -3.30851418261784    3.48360278069252
C          -3.43286932866762   -4.04998779814489    4.28137730562820
F          -4.46393785081676   -3.43386639408695    4.86677315839227
C          -3.24838486261562   -5.41859351224117    4.48618124997534
F          -4.10251140577476   -6.09220198208895    5.26331505999643
C          -2.18951200525325   -6.08416246995495    3.89035478134087
C          -1.33608423640880   -5.34479790174461    3.09518486856088
C          -1.51147154676792   -3.96669445859675    2.88315064962312
C          -0.44969744633489   -3.48389369443319    1.99907399408209
C          -0.29286564504919   -2.18619206306941    1.59186805928942
C          -1.14852682294306   -1.12851493291208    1.97191617060383
N          -1.80358158414116   -0.22588831367265    2.24069907421165
C           0.72984069442680   -1.70306760278082    0.74692662945930
N           1.52572166009002   -1.22902132785142    0.06855734660048
C           0.38116691537728   -4.62553921841876    1.65774051071630
C          -0.14936320727534   -5.80854554957807    2.35029954207297
O           0.28668864620784   -6.94252937512775    2.32319387034104
C           1.46101523403130   -4.61384408300611    0.81529135781596
C           2.30741107298019   -5.66189825426434    0.40925453512520
S           2.25348583327994   -7.33593638128485    0.90060679494612
C           3.59145947395187   -7.73335424562303   -0.12244725240274
C           4.06459356144767   -6.59831732074144   -0.81062075062976
C           3.34276365727256   -5.45083176444535   -0.50071911484933
C           5.15309682372636   -6.57518491407008   -1.69992046479923
N           6.03801415817319   -6.52077704442638   -2.42878896203436
C           4.03199206545443   -9.07554236633302   -0.17351780302120
C           4.96167358420691   -9.56231572951716   -1.04196791929803
C           5.34532756059905  -10.92226259360127   -1.06920037744877
N           6.23655449751648  -11.44087013837277   -1.98009389831445
C           6.96664699147372  -10.70708478280535   -2.98747738735299
C           8.14160113447382   -9.93415485541311   -2.39502344367287
C           6.41310044854040  -12.82336435580736   -1.81475832363150
O           7.13950131484165  -13.49981114047399   -2.51580393853798
C           5.55428836036051  -13.16391561863173   -0.69966432026260
C           4.91649013585216  -11.98012206404375   -0.26404624454359
C           4.06028498672209  -12.32116545317949    0.85399950990673
O           3.32560350154084  -11.64727628675526    1.54770621217205
N           4.24660083018324  -13.70192409090931    1.02571033225666
C           3.51560720774588  -14.43833919684512    2.03047007637315
C           2.29658150578159  -15.14248349512628    1.44124910520287
C           5.12087972843212  -14.22290162077833    0.10237315100959
C           5.45548428904550  -15.59573401240257    0.03551954653767
C           6.28257759685942  -16.09986015680093   -0.91949415604594
C           6.59645994770219  -17.47446716072366   -1.04277980596987
S           7.61637780425045  -17.98774999688955   -2.36673931512657
C           6.22323982524869  -18.58724964041858   -0.30395538160307
C           5.44937329054091  -18.87281695423443    0.91520119441004
O           4.84310418763453  -18.13346648625988    1.65511200827232
N           5.52882895509786  -20.24782317929515    1.07810357028320
C           4.94813111545272  -20.95368154609354    2.20179368990080
C           6.00167446465053  -21.25791281689678    3.26056669800213
C           6.25061155049579  -20.88743157239403    0.08669997966508
O           6.39091674185965  -22.08701095312318    0.01825813027266
C           6.72548491646712  -19.80960262934633   -0.80100581213469
C           7.51853392037753  -19.67836579196965   -1.92878576392309
C           8.23843806650057  -20.63613720722612   -2.68803131757569
C           8.21253616101660  -21.96479290716471   -2.41836293428526
C           8.96269063952542  -22.93531365634347   -3.12394630915353
C           9.12690393584794  -24.22487565895358   -2.71902470819720
C           9.56212348330055  -25.28192834643242   -3.66890705588246
O          10.07227180361745  -25.12664632892613   -4.75199762007208
C           9.16985538256131  -26.55517819203796   -3.02058108556556
C           8.66015872038538  -26.29488259099817   -1.73483772266756
C           8.19673488472126  -27.33637162777157   -0.94678727826611
C           8.25647955730637  -28.62061659860454   -1.46641040846530
C           8.77307360353268  -28.87279176371133   -2.73894374902661
C           9.23696483720007  -27.83644233126939   -3.53287699257020
F           8.81600364058453  -30.12868540224839   -3.19700787387844
F           7.80466067898705  -29.64005613447418   -0.72953301046178
C           8.76344365512034  -24.86076649758924   -1.46666325309891
C           8.73511491770255  -24.27669526866880   -0.23074507733040
C           9.15084368447174  -22.95337121138629    0.04131990061630
N           9.54851911080239  -21.92100025425799    0.34501613100168
C           8.38651605678767  -24.95828194191983    0.95534271370863
N           8.09373096263300  -25.45699158935788    1.94599043493508
H          -2.76292564094688   -2.25510371012578    3.35889862250107
H          -2.04165797276379   -7.14119769803395    4.04418157406649
H           1.72153146375739   -3.66374410389575    0.36478571978576
H           3.55587689177354   -4.48396205670622   -0.92378699073711
H           3.56089313547836   -9.75075598278667    0.53021231775745
H           5.41962268133392   -8.90269168216005   -1.76268598687719
H           6.28758980471077  -10.03159189964982   -3.51476178196930
H           7.33771359144642  -11.45627892564857   -3.69244080820050
H           7.80136539028390   -9.18654682360437   -1.68251852297545
H           8.68202866083532   -9.42973711775885   -3.19053413208030
H           8.82050763009577  -10.61645327457473   -1.88919312743623
H           3.19242048022419  -13.70120194938157    2.77057408230573
H           4.17933807406477  -15.16079865897926    2.51081788825481
H           1.63298283194873  -14.41699880643840    0.97659053463907
H           1.75559874212076  -15.65459707984842    2.23148940051726
H           2.59525779520896  -15.87474231585521    0.69501127660334
H           5.02172550587306  -16.25851355436537    0.76946676264521
H           6.72577471318669  -15.43931128953682   -1.65399826238856
H           4.51385304535087  -21.88283444257212    1.82430008097211
H           4.16172886715053  -20.31453713429638    2.60923747095547
H           6.78873668058882  -21.87964752974750    2.83995281775023
H           5.54479107724555  -21.78917159765058    4.09028993311562
H           6.44202328042383  -20.33595938258092    3.63335463722058
H           8.86472691607447  -20.24988847140400   -3.48155051248167
H           7.57094345128703  -22.31586676405794   -1.62393066098903
H           9.38478632351470  -22.67051520426788   -4.08687400372319
H           7.78581898509394  -27.18759329675169    0.03857570523017
H           9.63449618987871  -28.02991226746468   -4.51645732678090
