130
 SCF done       -228.463940495886          0.000487421965
C           3.67080430340942    3.29545504315648   -1.53245867370946
C           4.32655215415476    3.95789049906579   -0.32345779692347
C           3.83234716066302    3.80765820842977    0.96463221264576
C           4.48155798098837    4.40658570915331    2.03042505829990
C           5.62326068845388    5.15995038753800    1.82054617314280
C           6.11760578846482    5.31399683972079    0.53690659322772
C           5.47587140648277    4.71129597599244   -0.52938025642186
C           2.26050917327613    2.79599873223422   -1.26335524405035
C           1.31986712986349    3.73377686216254   -0.84930299771589
C           0.00858127510038    3.35462591401749   -0.63310471332014
C          -0.37642172266188    2.03915458968234   -0.83504514294647
C           0.55157684259267    1.11089049497253   -1.27125189803507
C           1.86610982813724    1.48680263472503   -1.49543241608358
C           4.62670401694479    2.27205170415582   -2.11091192538604
C           4.94721374183289    2.67154779293932   -3.38497960830137
C           4.24710813971271    3.90623330388902   -3.65360452990078
C           4.26014143111653    4.65832120250682   -4.79683843279468
C           4.99459113983705    4.30215254334397   -5.94296179773138
N           5.57595663116840    4.05819651480658   -6.90080242683841
C           3.51888011177484    5.85578136141758   -4.87338419386252
N           2.91871113165332    6.83054546107578   -4.93588337093914
O           3.54000603135259    4.27604837120296   -2.57947657160809
C           5.80151240818052    2.01596433232132   -4.28452891845871
N           6.50309324392227    1.44849795768249   -4.99215406905917
C           5.12554579909910    1.16523842954532   -1.38342563701776
S           6.37728293284197    0.12724749800639   -2.01776385470286
C           6.36888258746186   -0.85385260395075   -0.58863890828787
C           5.42172707513571   -0.37678469867158    0.33161517287529
C           4.73683509379380    0.75528208010819   -0.11971914570621
C           5.15392972513503   -0.94009870351278    1.59065038052986
N           4.90105625694169   -1.37011881006439    2.62431558218403
C           7.26173434534722   -1.94601906506547   -0.50910019681357
C           7.32022540222610   -2.84005555366300    0.51776672850029
C           8.25943428072107   -3.89426932034203    0.54694443868025
N           8.32254016739290   -4.83596442792322    1.54395699697386
C           7.41742591608214   -4.97105684813556    2.66090338609139
C           6.09146468536661   -5.60188514143093    2.24458243358006
C           9.37477458906739   -5.75257563399333    1.33956955102161
O           9.62777322157770   -6.67122390056576    2.08753023414903
C           9.99493058883666   -5.30266425492739    0.11054143766071
C           9.29523941731367   -4.17583347889814   -0.35391231240368
C           9.94954115212560   -3.72845525122090   -1.56601992315055
O           9.70862133678034   -2.80787639398642   -2.31946327449257
N          11.02502758500462   -4.61975400260334   -1.74449264299948
C          11.86345167830438   -4.49121489256537   -2.91406256093550
C          11.54056279023433   -5.54717362300254   -3.96761304152148
C          11.06766654028194   -5.57148960209784   -0.75093127724515
C          11.97238637078163   -6.62632698110116   -0.51296105382119
C          13.10828108357067   -6.97651051805738   -1.18415475751349
C          13.94543468444741   -8.04876719070999   -0.80638033460206
C          15.13249333820109   -8.39196045105157   -1.43262651012085
C          15.70696363225928   -9.50786706140500   -0.77687498404230
C          14.77835743114498   -9.85876334973712    0.31795642636223
C          13.74143186248817   -8.98219029690413    0.29403589810630
C          14.92283935352951  -10.90117251618193    1.24074220172332
N          15.01457966996129  -11.75060130329825    2.00947315262032
C          16.89993285177828  -10.14073365552500   -1.06518906658618
C          17.45677261985206  -11.25943923091183   -0.39452611372299
C          18.68402279281858  -11.56513053458554   -0.95412634090445
C          18.92782848831992  -10.61427950170436   -2.02836078118118
C          17.86850664501564   -9.76696069304250   -2.11297326010829
C          17.73429849021848   -8.72148396738319   -3.03275797726127
N          17.63707526938535   -7.86968587537911   -3.79758623224307
C          19.58898817913458  -12.58462008389946   -0.56958129135063
C          19.28011608368957  -13.52024747400703    0.37132294178432
C          20.13517802404035  -14.52492389356384    0.87014798652821
C          21.47992176246858  -14.75374205105106    0.67524319872217
C          21.86311807443449  -15.85890718602443    1.51886080905542
C          23.10300352337040  -16.42890262230346    1.65912338135625
C          24.23229382888873  -15.99939152347297    0.93993316038698
N          25.18363773985358  -15.68946814810843    0.37876187947367
C          23.30174126659661  -17.49461375844914    2.55975754636844
N          23.46902878327464  -18.35726743980153    3.29670582653916
O          20.81314748661029  -16.29617679392848    2.22234408641968
C          19.63940281070687  -15.54807140201569    1.86773275034874
C          18.63656046526435  -16.54584363592449    1.30679989210043
C          18.18302682284731  -17.54468387689892    2.16033625248513
C          17.30056972229580  -18.50292143867819    1.69890274540033
C          16.86474982550470  -18.47006542263238    0.38420132777196
C          17.32187577394501  -17.48108396501386   -0.46813518006963
C          18.21221914547687  -16.52233616083315   -0.01310666985479
C          19.07282584989512  -14.81888788866016    3.07865824811910
C          19.90560331597149  -14.43207976161395    4.11831400901941
C          19.39369494605109  -13.70972097430976    5.18216838049910
C          18.05719724340220  -13.35063415847006    5.20185508835029
C          17.22427197669442  -13.73299072317244    4.16375987737994
C          17.72742853796403  -14.47165313201593    3.10824488566902
C          22.34919373418240  -14.03793862161787   -0.15916690612256
N          23.02262462063175  -13.42607697560498   -0.85824741092578
H           2.93335508824338    3.23590382986514    1.14285978444122
H           4.08747713981048    4.28424196995613    3.02786112520823
H           6.12459728138884    5.62780477359454    2.65389881996849
H           7.00537150537540    5.90223150304564    0.36171204849717
H           5.87031278280666    4.83948861110408   -1.52747311839552
H           1.62429903366548    4.75954741563306   -0.70657597371934
H          -0.71333368135407    4.08872933435335   -0.30968066632398
H          -1.39953349836043    1.74138827978800   -0.66336587192291
H           0.25548370216167    0.08790094546939   -1.44773129135206
H           2.57135471511436    0.75202302391160   -1.85422650178319
H           3.97713026649604    1.24848114462323    0.45791984560762
H           7.94194979226742   -2.05781321740278   -1.34448972783932
H           6.63726601662593   -2.75404916228184    1.34882780352156
H           7.25191383463240   -3.99318453192272    3.12089843118262
H           7.92343759922333   -5.62006872044924    3.38084451828635
H           5.58276608538988   -4.98861862940755    1.50417197588924
H           5.44750761538534   -5.70228452633398    3.11323757993571
H           6.26347773721344   -6.58875788413404    1.82176769203368
H          12.91503683750665   -4.52357855057350   -2.61930853887887
H          11.65087605728356   -3.49783954206418   -3.32064925249164
H          11.65479385158745   -6.55301339786797   -3.56960885655942
H          12.20513799061087   -5.42954101667176   -4.81880271341978
H          10.51564749253061   -5.42618293629573   -4.30965416777393
H          11.69550805655058   -7.20400963448384    0.35970622495139
H          13.43915532369586   -6.42569909358923   -2.05124684179893
H          15.55950506249353   -7.89203919676890   -2.27998472124180
H          12.90737976616448   -8.97786976170471    0.97033572644683
H          16.99034519888085  -11.75975796344783    0.42989427287204
H          19.80741844407338  -10.60496068921331   -2.64521309204887
H          20.55420832415506  -12.59807046674938   -1.05657301280068
H          18.28975146181880  -13.50722856745907    0.80465884854956
H          18.53162294235496  -17.56513206519234    3.18177610118608
H          16.95345939942312  -19.27653021358830    2.36668197896536
H          16.17377850567406  -19.21701713000411    0.02368821645916
H          16.99177735156564  -17.45387239487552   -1.49578039889344
H          18.56731396427862  -15.76057538377267   -0.69257344266783
H          20.95065089948955  -14.70490219303414    4.10799328723190
H          20.04687342472743  -13.42152105599471    5.99198694686580
H          17.66435897159560  -12.77540197785816    6.02647468745702
H          16.18260138400005  -13.45268145433908    4.16534338947600
H          17.06630894495064  -14.78674147452087    2.31381318145613
