108
 SCF done       -225.915614816931          0.000480132615
C          -3.90833482734203    0.43382952458660    6.02384378419631
O          -4.72077055698348   -0.22973643402911    5.43307634918218
C          -2.93540401648004   -0.00280024418720    7.05309870964093
C          -1.93679786988125    0.97715145423897    7.20663274505075
C          -0.90476678850024    0.79715762448822    8.11344795439400
C          -0.89222920789984   -0.36975654083554    8.86221016465761
C          -1.87228964396996   -1.35176058744961    8.72031823179094
C          -2.90592170669539   -1.16779341674867    7.79886608940740
F          -3.83377984104793   -2.10578739461001    7.66296254925438
F          -1.81932147663175   -2.46074044106249    9.45956329613068
F           0.08814909508984   -0.56338183770488    9.74620874425551
C          -2.22143864860110    2.09835923716561    6.31276134382163
C          -1.40409025958780    3.16631312319080    6.06539047606639
C          -0.13705941772405    3.35518528199922    6.65913284563908
N           0.89850145916906    3.55882960095395    7.10809552545824
C          -1.70955421661675    4.19004573647521    5.14193643291014
N          -1.91037287751230    5.03352345074000    4.39022408905330
C          -3.52676740360997    1.85225185180450    5.73338019133328
C          -4.35138887242432    2.71841863950901    5.10097220625045
C          -5.72504713125209    2.44709511014437    4.80898438225545
C          -6.70371926372332    1.91425862517410    5.63842196863999
N          -6.60193207731752    1.49443857327161    6.97566510002416
O          -5.50147627561197    1.46784924394932    7.51672691605127
O          -7.63605245008975    1.21299487264492    7.55024812703754
C          -7.97644485365937    1.99235039827227    4.97125811829498
C          -7.80210800617679    2.59763115047118    3.76799432365867
C          -6.41214641703664    2.91624655366304    3.60705921453750
C          -5.76923670714173    3.45255739486539    2.50219881115027
C          -4.41643399359312    3.23361532844918    2.14969050997835
C          -4.19419795050202    3.76489891377851    0.90672645565354
C          -5.37866549381161    4.39288491982179    0.43148810173094
N          -5.37196312326319    5.00226016962831   -0.83123616352995
O          -4.29572920543710    5.10045536638931   -1.39448491227593
O          -6.42167460176520    5.38966309621616   -1.33446243727602
C          -6.38353152109768    4.26826480399567    1.42260315046066
C          -7.61060170809685    4.88955022441259    1.62481218507385
C          -8.30490651587730    5.70095634938423    0.74186141274709
C          -9.51889811079032    6.29867292045171    1.01767274404784
S         -10.37206150020639    6.11288000296642    2.52727968262404
C         -11.65915618309679    7.17482115778657    2.04208283507155
C         -11.47379519032862    7.61382966930296    0.70227175760232
C         -10.26417300322468    7.13430040793790    0.13363759346670
C          -9.91074342236715    7.46919979119831   -1.17505467724039
C         -10.75473945257613    8.25196809720992   -1.93751097304072
C         -10.40318791863617    8.63140253431960   -3.33707955948133
C         -11.97747315304704    8.67560623245839   -1.38826247023813
C         -12.34390194498284    8.36450610519992   -0.10290891486984
C         -12.66098432987470    7.45316008678469    2.97880049333548
C         -13.53310042754439    8.51273196781960    2.94548110146549
C         -14.57435864197651    8.72834934943242    3.86233595156561
C         -15.40961845194325    9.84065239990766    3.86904655028063
C         -16.38313675435369    9.69149622246321    4.88121330749579
C         -16.09930329033221    8.39694665197787    5.53405511557080
C         -15.01990956573079    7.84015107899182    4.92757398744783
C         -16.79637758432281    7.83705207937872    6.61244317348054
N         -17.34589036427561    7.36299508493248    7.50257081950328
C         -17.41759994883361   10.55367112902172    5.19677472246439
C         -18.45923571364031   10.33476706149687    6.13026627056597
C         -19.32627646755287   11.41430609230298    6.11021518582515
C         -18.81039526235496   12.37549101278296    5.14494833949094
C         -17.67672848713299   11.87404404549851    4.58973882292971
C         -16.89337043183830   12.51186115954384    3.62195553954030
N         -16.26386258365148   13.04960942163933    2.82540206615477
C         -20.53542220361480   11.57627789380615    6.82331129155666
C         -21.03287453152802   10.65245840751959    7.69588525831433
C         -22.28649161359516   10.79388124389263    8.32084112582027
C         -22.96329879749207    9.84786952783450    9.03752917712627
C         -24.08951992587454   10.26893494327647    9.91471480608534
O         -24.64034427075999   11.34045923875087    9.91384453055075
C         -24.33402070239835    9.10405654026424   10.79996243699789
C         -23.50791465773441    8.03250846842764   10.41090691031955
C         -22.74793138504939    8.43076743772255    9.22168997272181
C         -22.14852139483719    7.55989364351178    8.35064761406779
C         -22.05566178305768    6.16731591732565    8.57103803982204
N         -21.94813619104391    5.03294246282495    8.70117772812223
C         -21.65590599385248    7.90091540702856    7.07141198897297
N         -21.28553203637641    8.09335719009638    6.00255089678689
C         -23.52152431655660    6.83962449431887   11.11254112836897
C         -24.37839955972570    6.73161859739547   12.19895278497240
C         -25.21498266017234    7.77648769141697   12.58870384226121
C         -25.19065538238639    8.98028005044070   11.88041351138931
F         -25.98280143200865    9.97651896813819   12.25777421240012
F         -26.02998768138096    7.62940249334411   13.63431508632342
F         -24.40331743374467    5.59477389653524   12.89465462703774
H          -0.12284955351562    1.52286985810165    8.26606225537461
H          -3.99682465230626    3.70183964490784    4.81847592312954
H          -8.88734979242697    1.61316020753330    5.39314984306972
H          -8.55239687012189    2.71135587072908    3.00985630729151
H          -3.71938608889781    2.64406825538327    2.71199064234928
H          -3.28254106712042    3.72210779711607    0.34023887853857
H          -8.05886858765146    4.73687402611745    2.59879058319552
H          -7.88617606120654    5.87173722969218   -0.23931431912571
H          -8.98607821146013    7.10467958443243   -1.59439947755653
H          -9.46243480205755    8.18150454330589   -3.64066514474225
H         -10.31663680434173    9.71432559621987   -3.41992196918214
H         -11.18557354062228    8.31186042988799   -4.02392759581763
H         -12.64935711386874    9.25404494508819   -2.00471305758113
H         -13.30878912225221    8.66983249057584    0.26517839373723
H         -12.69275952963478    6.79118110009468    3.83483636204066
H         -13.41017125761218    9.27750938415939    2.19231079805852
H         -15.33802059254805   10.67619498319075    3.20044222364116
H         -14.57348831396864    6.89751530817950    5.18269782984327
H         -18.56790203580515    9.44471312779890    6.71567179786036
H         -19.26738034945047   13.32174760661591    4.92081236149820
H         -21.11784225019226   12.46434363790580    6.61117737366439
H         -20.44437057816387    9.77594882204654    7.92027326013232
H         -22.76135405613604   11.76929282217545    8.28408717604717
H         -22.89389228726255    6.00103681449034   10.85983616057525
