89
 SCF done       -184.335549076756          0.000223020144
O          14.43893456969995   -5.65324162095756   -7.33560631043916
C          13.77932272457256   -4.66105092548020   -7.50564080829114
C          12.30063358399354   -4.49605210644458   -7.46073626501135
C          11.07943788464505   -5.15450391408210   -7.26380747202108
C          10.09915713166897   -4.18265926555153   -7.41649043668230
C           8.68005887153011   -4.31509492067623   -7.33447478576023
C           7.84030760362751   -3.28508160452376   -7.51016383336934
N           6.45065495828342   -3.36028608569702   -7.47223323704414
C           5.67083018194297   -2.21910751045815   -7.69040575511710
O           6.09836860623425   -1.11685606051329   -7.89815555217562
C           4.25943571204021   -2.67716393294734   -7.61533417764188
C           3.09785134944696   -1.93703879350003   -7.75497444535894
C           1.92596396020931   -2.67091043863760   -7.64615776596289
C           0.51540222284713   -2.23412113687350   -7.80251365973951
O           0.06864523981379   -1.15319387802977   -8.01177863946234
O          -0.26811923023103   -3.35955025176073   -7.66954472370973
C           0.49427708327695   -4.47499321203693   -7.42800983497703
O           0.02121123744073   -5.56153720292164   -7.28953624611024
C           1.91181360733901   -4.04296835397153   -7.39531645488007
C           3.08425548990545   -4.79709668800797   -7.23510397088219
C           3.08883472391663   -6.22385060722388   -6.97837249216661
S           3.95765789049648   -7.29333793781494   -8.01761211332894
C           3.52027029410014   -8.67618049154001   -7.06989200512702
C           4.03828719142493   -9.94140198874809   -7.47540397451786
C           3.63117611025317  -11.15926905451430   -7.05729271211740
C           4.25647098781123  -12.37428990704365   -7.45546513564405
S           5.54762530143291  -12.40699835704005   -8.62459949583543
C           5.67052233105059  -14.12875653796619   -8.50300275958337
C           6.68921959207688  -14.83706211040556   -9.19907091794950
N           7.00691851282440  -16.06295283020803   -8.96979644210325
C           8.02597885779539  -16.48987295073076   -9.75511290102728
C           8.58726244173525  -17.76561267191511   -9.74225577906783
C           9.62789088488050  -18.04145016130717  -10.60095472694970
C          10.12093509342949  -17.07045893115134  -11.47253861913463
C           9.58046415505249  -15.80012621469182  -11.50576192486159
C           8.53378530348816  -15.51384156463012  -10.64651480593585
S           7.65772997765162  -14.02921910439352  -10.45279357061494
C           4.73322316050514  -14.65161591346700   -7.62620382673860
C           3.96292844535886  -13.65039268935200   -7.00401839467385
C           3.01366840577959  -13.95747968181272   -5.86976317144312
O           3.05442125777506  -12.98085374557831   -4.85222402494991
C           3.33905271299640  -15.34977053780409   -5.31590106734643
C           3.35733855710578  -16.37427470917869   -6.44183982297247
C           4.51739009654361  -16.10900861316448   -7.39868958933813
S           4.20661927445806  -16.97568511509944   -8.99716034607691
C           2.75143411622693   -8.29809590179682   -5.97969191493688
C           2.49197174524035   -6.91099283484091   -5.94498441323309
C           1.79879695318325   -6.24116821793464   -4.79476312986751
F           2.74359600110616   -5.61214814687151   -4.00644192362330
C           1.01581973481211   -7.28225635100168   -3.99379091923024
F           0.46649626446580   -6.71355975829879   -2.87489185337963
C           1.87687203941316   -8.49051276419779   -3.62950953247387
F           3.02376087840318   -8.12779250438505   -2.97474996935191
C           2.26693477560502   -9.23227878490078   -4.91335597356434
F           1.14425484511572   -9.91824714927514   -5.35033647247016
C           4.26148417529315   -4.05303808107950   -7.37302193470441
C           5.67637573838016   -4.50079164689447   -7.25722500223207
O           6.09615134473584   -5.60378565278498   -7.02350558394685
O          10.66507705509812   -2.96663776709773   -7.69612875851833
C          11.97551935178086   -3.16671633947212   -7.71988011500077
C          13.17058274842727   -2.41265663672684   -7.94124295140938
S          13.65328206601081   -0.81688694180337   -8.30468930581234
C          15.31143184166942   -1.30722181082917   -8.29477235565423
C          15.48404042931720   -2.63367156371342   -8.02472965643540
C          14.25485644801675   -3.27916578512953   -7.81956927509902
H          10.91181130626205   -6.18806129963976   -7.04192677932217
H           8.31533253089497   -5.30802376094733   -7.12676641811708
H           8.19326026402545   -2.28324534464328   -7.71338916195477
H           3.10417120115857   -0.87622873618007   -7.94378638646312
H           4.84487436781988   -9.88857974690258   -8.19726448268977
H           2.78668730041787  -11.27998811602749   -6.39900885878500
H           8.19333048485323  -18.50717407389693   -9.06628710830002
H          10.07202972342684  -19.02536856084789  -10.60231746327349
H          10.93879458044756  -17.31511820138379  -12.13315326965873
H           9.95930820111983  -15.04735660631547  -12.17925357435012
H           1.97795683308593  -13.93225118960474   -6.23307858549029
H           3.92245447767283  -13.00839939878739   -4.43227212922020
H           2.59238804139770  -15.61883472940100   -4.56800514694700
H           4.31736283770886  -15.31865955659480   -4.82680991295180
H           2.41187753040765  -16.31140271337408   -6.98670275522889
H           3.44328158553712  -17.38452094728687   -6.04147571369563
H           5.44550344548510  -16.57115908858055   -7.05314732409505
H           3.05780566716246  -16.34935187696619   -9.26059380955608
H           1.11570769342280   -5.44841858007977   -5.11589341484751
H           0.17920663878989   -7.63434632282534   -4.61330443650681
H           1.32275291551225   -9.15801515810288   -2.95758668733258
H           3.02180550580968   -9.99389677271590   -4.67893924376128
H          16.06458364423823   -0.57087775915692   -8.49263943397757
H          16.44195032264676   -3.11761649074015   -7.97690186846594
