83
 SCF done       -161.227034235752          0.000845956296
C           1.03442594329316    1.62066243434306   -0.05729532980666
C           0.12582692650718    1.12964425937310   -0.99552675273230
C           0.55823209224851    0.88791365659140   -2.32445173901141
C           1.86610743006217    1.13063758330454   -2.71054757633624
C           2.74417986438753    1.61678728698767   -1.76285804715077
C           2.33160651258802    1.85844844588638   -0.45121252689941
S          -0.76358120399664    0.28597955682526   -3.26892816363142
C          -1.77665469370440    0.41100321145188   -1.81240511699616
N          -1.17800137426136    0.84877830030351   -0.76497192437794
C          -3.15304896748898    0.04244723046596   -1.86735295284904
S          -3.91262320019688   -0.56888358395757   -3.32789306645934
C          -5.37954925932307   -0.65459747471400   -2.36191362107714
N          -5.19037417805942   -0.25295986850247   -1.13337199210940
N          -3.97768970677025    0.12582556158017   -0.86418387313136
C          -6.61583284344758   -1.10256557833925   -2.90018654474545
C          -7.74604773225309   -1.13682729743479   -2.15237920133092
C          -8.99627979441764   -1.55899479365990   -2.67269603572647
N         -10.15995006306769   -1.57545419637927   -1.94125992506135
C         -10.32803815838931   -1.12812535030522   -0.57932713769758
C         -10.39797106674069    0.39420464222474   -0.49056899113921
C         -11.25289098737667   -2.02890201794001   -2.69962795108873
O         -12.37531774076877   -2.15564093416461   -2.25360543153087
C         -10.69197291275783   -2.30290214552528   -4.00581764140400
C          -9.30415407638061   -2.01917192651232   -3.95185004229165
C          -8.74050211167211   -2.31427217285025   -5.25109412300021
O          -7.60985096594590   -2.22713300028398   -5.68764122816616
N          -9.83701004036099   -2.75338755416509   -6.01379075692072
C          -9.66981638345381   -3.20887869987383   -7.37329006647569
C          -9.69685020930099   -4.73226998270494   -7.47037134591420
C         -11.00302484909402   -2.74409936090550   -5.28850815699566
C         -12.27251442624818   -3.09403811957810   -5.82666578063674
C         -13.40772916485095   -2.97277064732425   -5.10596403168491
C         -14.72467274322877   -3.31090567004801   -5.57425030441894
C         -15.84007599670491   -2.49808978739188   -5.27268467069652
C         -15.67054076562654   -1.16029931801697   -4.66894011521547
O         -14.65399715245477   -0.59792705807230   -4.39683832636562
S         -17.28380168374760   -0.40364797130554   -4.46712537067622
C         -18.12730231782567   -1.75315250829307   -5.29751034932212
O         -19.28637498829288   -1.69232510533228   -5.57540448445811
C         -17.15315758419450   -2.82959292217197   -5.59820834152474
C         -17.47726388418619   -4.03588297260529   -6.26019615937983
C         -16.35698526124168   -4.79449134451737   -6.63639971416055
C         -15.04419752913305   -4.46046204111613   -6.31499404952226
C         -14.18415465786654   -5.56249456543407   -6.81138925698249
O         -13.00388406047747   -5.72286313735668   -6.74284442721852
O         -15.00464792723665   -6.47776840422307   -7.42017303434754
C         -16.32229589669515   -6.08786494157843   -7.35803025689553
O         -17.20339671177015   -6.73672755708353   -7.82766108366761
C         -18.80013816548664   -4.51185552556613   -6.57027481584679
C         -19.88408623726501   -4.38919334503559   -5.78182749746161
C         -21.15660993763482   -4.91049073610743   -6.16550527855954
N         -21.42207777204186   -5.51823218418691   -7.26814791019941
C         -22.72056663034835   -5.88214944070429   -7.36277919083425
C         -23.30612611374589   -6.55435626615250   -8.43714206692029
C         -24.64777841967883   -6.85322186369008   -8.38109299906430
C         -25.42238357486649   -6.49541598450517   -7.27528933626737
C         -24.86918140848253   -5.83169853901930   -6.19937063554166
C         -23.51827115807199   -5.52662330585675   -6.24385526251893
S         -22.54191003568404   -4.71506785432663   -5.06721175348542
H           0.69947276004248    1.80173309877614    0.95091478657938
H           2.18303965202885    0.94304756494483   -3.72450710395967
H           3.76817471737940    1.81332825902364   -2.04206345961051
H           3.04581545745499    2.23867090064512    0.26326842959877
H          -6.62434008601339   -1.40803612716490   -3.93728664620210
H          -7.68853425029352   -0.82319429670998   -1.12048480131657
H          -9.51373376285177   -1.51771376246307    0.03714490890606
H         -11.27165845310246   -1.55993768548129   -0.23428266361146
H          -9.47916516440794    0.84871938462303   -0.85404508985975
H         -10.55172043741799    0.69491259537916    0.54186647348606
H         -11.22859749936539    0.76244690459351   -1.08785915782279
H          -8.69346155904278   -2.83501939486023   -7.69514963860313
H         -10.44231479927871   -2.76353738691141   -8.00675170648360
H          -8.90697297700099   -5.15605033212916   -6.85497101687549
H          -9.53153976949922   -5.03427894018098   -8.50089855708309
H         -10.65039585585190   -5.13423824853673   -7.13683368157326
H         -12.30703558296379   -3.41860895263237   -6.85500638488155
H         -13.35515111830671   -2.55888043901362   -4.10558686082487
H         -18.89866888701525   -5.09160323250502   -7.47813047025825
H         -19.84226313850394   -3.90844939514607   -4.81588873755725
H         -22.69477137765536   -6.82364921371426   -9.28300298594189
H         -25.11459856568843   -7.37316556940118   -9.20387847185570
H         -26.47290940360240   -6.74317662915359   -7.26159206844418
H         -25.46610394384397   -5.55534621637893   -5.34446132991662
