102
 SCF done       -196.475751744856          0.000953742165
C           6.86909965899510   -1.72168826319978   -1.84190040287113
O           7.57703944947556   -2.38272488676045   -1.11027401783187
C           7.06979384058518   -1.37038737580719   -3.23588931290796
C           6.19843556034867   -0.35738559061929   -3.62999774188115
C           6.38768072482943    0.02685556223251   -4.97077115599472
C           7.38584560650192   -0.70082722372987   -5.54928401745012
S           8.11896346103452   -1.84919837413564   -4.49377228565646
C           5.34688610249415    0.00228932433683   -2.51791980694572
C           4.44877372853238    1.03289599638824   -2.49545316985856
C           4.24833426656012    1.86917735290280   -3.61450461581232
N           4.07751248960784    2.55662702375657   -4.51652124960369
C           3.67782721786649    1.39142901158960   -1.37166864021204
N           3.04975171459415    1.72465920336338   -0.47031363969377
C           5.64722291181330   -0.94650663568930   -1.45204571646862
C           4.92187252853178   -1.18592548157675   -0.34053338611514
C           5.11103265097875   -2.30394456008735    0.54012770330669
C           5.34902601304032   -3.64511488035895    0.21828717594051
N           5.41812954674696   -4.24374706459304   -1.04500019624600
O           5.12382045191220   -3.59263361427647   -2.03958481299387
O           5.78197321792446   -5.40873429191484   -1.09256673299668
C           5.47688650679212   -4.40723635466262    1.42551135180916
C           5.41474265973617   -3.55025681735802    2.47519134558706
C           5.19241912851117   -2.21157549246950    1.96949848150324
C           5.20541326091440   -1.05610943379581    2.76163486545355
C           4.43423688833398    0.11097303886154    2.69241632682216
C           4.61477328991379    0.83650074337473    3.86282812453453
C           5.55828126701374    0.18813179992633    4.67909791420845
N           6.02097503386443    0.68127647649092    5.90531304483392
O           6.87937433913506    0.04223909901045    6.49954026673471
O           5.53353993603423    1.71912109871666    6.31884441771872
C           6.01819451369091   -0.96615434971358    3.99664800099802
C           7.12839328007141   -1.74199720787314    4.25801679091721
C           7.74556584387709   -2.53803427592860    3.28759362447966
C           8.63074708781213   -3.56578786254888    3.52525520754849
S           9.13046571645729   -4.05486991087396    5.12294422321988
C          10.03929133554295   -5.40497554349892    4.51878681663844
C           9.93617861715595   -5.49677938863295    3.10353598271324
C           9.15834331866620   -4.45464429350284    2.53824526488162
C           8.93617572404884   -4.40762922266243    1.16399907812066
C           9.46252988598104   -5.39100305305486    0.34467674450594
C           9.17102303954042   -5.37351800833262   -1.11533437904717
C          10.23817946583283   -6.41588421133925    0.91259213714840
C          10.48431635359225   -6.47410872807583    2.26264988851208
C          10.74127466746431   -6.26551847032467    5.36441886762361
C          10.83798195993175   -6.10101939544608    6.72432807493787
C          11.51655743126549   -6.96282782421792    7.59870626764431
C          11.64571751869651   -6.77669577427015    8.97188626279256
C          12.35995250289219   -7.86176365424611    9.52730315337818
C          12.68828011307935   -8.75658001216674    8.40026659504870
C          12.19053919381656   -8.20852290135701    7.26183898550665
C          13.42116515993534   -9.94856517894040    8.46129547210832
N          14.03307644413407  -10.92057799362843    8.47158314718188
C          12.68249519523122   -8.07916539824598   10.85448603634141
C          13.28335765447505   -9.23427567905628   11.40868902331112
C          13.39348504749392   -9.08025636531109   12.77942878435684
C          12.86515688873291   -7.76502790444740   13.11911919423123
C          12.43397661294659   -7.15917261089678   11.98313815152506
C          11.87929078907963   -5.87728803197382   11.90368023469180
N          11.43004927824738   -4.82078881063785   11.86227757213865
C          13.87007019500536  -10.01540407525033   13.72772495904212
C          14.33865383558180  -11.25146613139891   13.39753426277246
C          14.73173598026509  -12.20856349553086   14.35745045709474
C          14.98826786495742  -13.52833926788846   14.14279613910525
C          15.70620591424106  -14.31345162381875   15.20066990512864
O          15.91475483003422  -13.96015026160238   16.33760741939396
C          16.10971347638024  -15.53133432816584   14.51125422145006
C          15.61277408909367  -15.56318089168561   13.21156112301420
C          14.80057984757764  -14.38121790247662   12.98095998457772
C          13.90676974047424  -14.25284566713240   11.95084218752239
C          13.82243752225037  -15.22273195328852   10.92674418436599
N          13.74439530958475  -15.99663629447951   10.08375172383518
C          12.91467426239210  -13.25897794971120   11.82218785229531
N          12.05158599409771  -12.51643602712541   11.67581095198802
C          15.98573582664484  -16.72994342308911   12.51855380551623
C          16.75240721742679  -17.53909219198411   13.30520635626409
S          17.03098609419607  -16.92004095080162   14.88923940932163
H           5.82596220855102    0.78652748737741   -5.48212017643362
H           7.74129111345188   -0.62454090643019   -6.55846976210211
H           4.10690063136819   -0.52277344625328   -0.08705289190740
H           5.58684521063267   -5.47378653392594    1.44621788256829
H           5.41465810921829   -3.80604674183524    3.51691154855734
H           3.73177593916741    0.36461601006304    1.92216165443602
H           4.11965079995703    1.75322342932705    4.12499080828588
H           7.55753836120136   -1.69205913461232    5.25254037609709
H           7.54151238923339   -2.32253761994273    2.24827546492102
H           8.35300819450145   -3.61630754661367    0.72182393765779
H           8.24918650833766   -5.92730984735627   -1.30102420174806
H           9.96900505240746   -5.83760146286212   -1.68874457978321
H           9.01061282871352   -4.35505400500046   -1.45919209512215
H          10.64719840550982   -7.17738058437531    0.26534840510894
H          11.08408014003356   -7.27232781377673    2.67122857321995
H          11.23749077770458   -7.10375150905562    4.89684570891171
H          10.35881510866927   -5.23992373465865    7.17482733121215
H          11.25252456129544   -5.94686337897962    9.52615714002202
H          12.27506585888857   -8.62760118235908    6.27679395493154
H          13.55361093854241  -10.10313476571004   10.84411622503347
H          12.83127484145126   -7.35821724287810   14.11307031105005
H          13.80367980507305   -9.73809296358901   14.77245581406523
H          14.41847268719531  -11.51660127683800   12.35456824933605
H          14.89308043019750  -11.86622208670860   15.37483504535168
H          15.71758916604160  -16.96260711914219   11.50484622646803
H          17.17522783530585  -18.48800091621150   13.03830878565890
