114
 SCF done       -197.673414565385          0.000624286780
C           3.94091111514633   -0.00082004364706    1.88575962394564
O           5.05575577343656   -0.45990384208810    1.98540880172823
C           3.55795172994558    1.39154859763599    1.67972626381791
C           2.20183341056566    1.58389594992993    1.91132969238482
C           1.81114888060077    2.92870531928835    1.76227950195629
C           2.87749492318925    3.70997053969214    1.42751062822040
S           4.36360561720019    2.84418845660395    1.29077065533514
C           1.59232499073170    0.31054106006887    2.23905490455396
C           0.26064738755019    0.12467390040830    2.51820612239686
C          -0.64786613649935    1.20146572649130    2.55212924803355
N          -1.40531914193982    2.06327105976026    2.58931816701622
C          -0.34436730159750   -1.11342059327615    2.80161872362422
N          -0.89154032425762   -2.09698083320899    3.03510738796479
C           2.63548667107889   -0.69077204754615    2.15264020987303
C           2.49422662545407   -2.02953573853259    2.37623908923961
C           3.44616487159528   -2.99600290529374    1.98023720770381
N           3.58724414423006   -4.23846319170440    2.56506162658734
C           2.85347484761694   -4.72743597975175    3.70713974751822
C           1.50385699036349   -5.32188666527690    3.30975126820546
C           4.58389223012978   -4.99516731364535    1.94504698725811
O           4.92246805773418   -6.11233962345862    2.31395849814059
C           5.04910687285223   -4.16346891260780    0.86514339076531
C           4.33185145865730   -2.94710756242604    0.91089226937898
C           4.72073476814261   -2.14906872333786   -0.23452592888002
O           4.33069881967599   -1.08483845615857   -0.66298019577572
N           5.70391482164529   -2.92815450920257   -0.87605031380762
C           6.47371479115385   -2.39017165404402   -1.96962660744648
C           7.80113360169623   -1.81446460749655   -1.48138262420889
C           5.92344678219525   -4.12205668036346   -0.22863410778835
C           6.87480100419698   -5.07595045026429   -0.63453985487529
C           7.08336900184957   -6.19935202374723    0.11605815477375
N           7.99265743103228   -7.15192714498135   -0.08543681750295
C           7.98257055169959   -8.38460173502215    0.66774413095476
N           9.30568129301484   -8.90908403665136    0.44559948046460
C           9.70313761057895   -8.55567927194483   -0.91063955227644
C          11.23419193613861   -8.44811017302665   -0.93243240148150
C          11.79581044046225   -7.56982865373551   -2.04729471101156
C          10.93394344779559   -6.30777673274972   -2.30884282580381
C           9.97176208278841   -6.04950527492654   -1.14812043550566
C           8.97494259855381   -7.20982691648726   -1.14947378645098
N          11.91210100758176   -5.25768423447026   -2.48390152700831
C          13.25944886748338   -5.81645100800926   -2.41096097881131
N          13.12493496285484   -7.06729296169670   -1.71249757834960
C          11.59608893488700   -4.07022511416266   -3.03239239742901
C          12.48460432565477   -3.10006034316622   -3.36715722735478
C          12.16241712482776   -1.85195814821533   -3.96467549862882
C          13.20880820655693   -0.89892393631269   -4.11587158181766
C          12.98761841275924    0.39421590241906   -4.68282378954972
N          14.03772074951303    1.21026489925622   -4.92089540648981
C          15.22523489856900    0.82539405825665   -4.54954985116348
C          15.42752978562042   -0.40555884687000   -3.89394812014794
N          14.44792480634550   -1.24570000184518   -3.70843090393490
C          11.69035742098005    0.80241449245703   -5.06976300700887
C          10.67064564778345   -0.17438922807696   -5.01909642804834
C          10.89115164627458   -1.48430308216327   -4.48124990179808
N           9.88463228039531   -2.38120267345959   -4.51109270392299
C           8.73006466070281   -2.02273919601143   -5.00736006211494
C           8.50198931614058   -0.72212712164612   -5.49057038987201
N           9.45565354817045    0.16504277789757   -5.49421229758383
C          11.40014618875629    2.10059963092233   -5.59631036649994
S          10.17066854415507    2.27263722197702   -6.79459500032499
C          10.48052005180147    3.95822566111919   -7.02526225332116
C          11.49454733657364    4.39317001852696   -6.16908455138084
C          11.99485182007622    3.33893504500832   -5.32721676952568
C          12.91423712196701    3.64815742349576   -4.30981583889027
C          13.42882613566082    4.91791108098031   -4.21158891930466
C          14.35472661613630    5.22307077797469   -3.19125396005611
N          15.10854287049956    5.44668781252684   -2.35630530410046
C          13.04338507924459    5.92978987254572   -5.14746936229584
C          13.64282884149100    7.20649805774918   -5.08028566105684
N          14.11478722914334    8.25086371894226   -5.04145248471664
C          12.08207453095662    5.67100344112082   -6.09308469202470
C           9.67019985747619    4.66548953257685   -7.97791099525950
C           9.39288609290879    5.96905378144735   -7.98932970089127
H           0.81271694483089    3.30244812024668    1.89410900680469
H           2.87546417835248    4.76750814343398    1.24858267526471
H           1.59189026878087   -2.39081406868794    2.84983780981754
H           2.72201500050225   -3.91393937930923    4.42593831290717
H           3.47493909239946   -5.50623392256653    4.15884018090020
H           0.85335071466573   -4.57278718870657    2.86464696145500
H           1.01027941556758   -5.72598644813220    4.18916127751609
H           1.65121900034674   -6.12551723026946    2.59226038884614
H           5.86650330530232   -1.59262728391758   -2.40670806481829
H           6.63357703257272   -3.16521231523861   -2.72467821174624
H           7.61184348131142   -1.02682678977580   -0.75655875472560
H           8.35990151646852   -1.39738988195788   -2.31454286508316
H           8.40571501367467   -2.58233228470448   -1.00314855151263
H           7.42854702601967   -4.89107518463586   -1.54018776504924
H           6.45808764136911   -6.35821704761118    0.98823918276763
H           7.17058981070151   -9.04187062456155    0.29398578334249
H           7.81337827023689   -8.19396837708875    1.73205252341768
H           9.38211780442509   -9.89796061562841    0.64221697473431
H           9.36657438247420   -9.28845483395400   -1.66228191356385
H          11.66572291924444   -9.44594040564879   -1.00384306039261
H          11.53279893907226   -8.03959944297990    0.03480810836372
H          11.88693983092418   -8.14394300690823   -2.97676868855175
H          10.34152122370382   -6.42408803211221   -3.22704709408325
H           9.46972866748409   -5.09529365533128   -1.29180707022707
H          10.50198426045097   -6.00683393121796   -0.19774442792740
H           8.46076456520137   -7.21949313528120   -2.12141963358817
H          13.94465033389498   -5.13896131695087   -1.89894011765429
H          13.63717027758108   -6.00339064516504   -3.42815883428274
H          13.19345389484202   -6.91968549836914   -0.71036270599370
H          10.54202270289862   -3.90308495928808   -3.19711582731310
H          13.53609009187608   -3.23410030702279   -3.16357269401606
H          16.04523854802410    1.49351568158431   -4.77496218823353
H          16.40434489893957   -0.70902090352758   -3.54271870281108
H           7.95595135727579   -2.77834885726037   -5.03177123307203
H           7.54115737446753   -0.41335047324007   -5.87794886585134
H          13.20983886750674    2.89857300630044   -3.59481081094552
H          11.79865067389361    6.44360951065034   -6.78963666863883
H           9.21610081119409    4.02766952329613   -8.72706335628009
H           9.74731245433478    6.64993526652017   -7.23642930301239
H           8.76575781080075    6.39130117066282   -8.75499788515721
