108
 SCF done       -196.160580306779          0.000944808022
C          -0.44142398011416   -3.16066129281932    6.52023183773023
C          -0.28408439217701   -4.36033937149492    5.81845986047200
C           0.84734713826468   -5.14365760807967    6.05976914777434
C           1.80940549813483   -4.72960101955978    6.98182677125433
C           1.63091301653848   -3.54673820347553    7.66389612845474
C           0.50322096796134   -2.76039818900836    7.43578711903596
O           1.06617360665654   -6.30367209978548    5.39792742861591
C           0.11637719368572   -6.79276030471126    4.59217580451837
C           0.49318028052267   -8.11051406165900    4.00792174739439
C          -1.03987189376402   -6.13490966096100    4.30398284685118
C          -1.26978242180985   -4.77169611416149    4.81539714757073
O          -2.17019314467651   -4.03497109185354    4.44295447599505
C          -2.10561439170208   -6.72294897388270    3.51409883490586
C          -2.90924703069591   -7.81394128509164    3.80548513394397
N          -2.84792332978993   -8.65054630208673    4.92280645648348
O          -3.82060555443914   -9.35607183474821    5.14984563917922
O          -1.84901677355868   -8.63404149420200    5.62730477945643
C          -4.00896519337004   -7.86262386377932    2.86812984208059
C          -3.94608968752833   -6.76525296154922    2.08096617733065
C          -2.78642217246787   -5.99574193008550    2.46216839368076
C          -2.42326843683923   -4.73593872093514    2.00888842839992
C          -1.12531924995107   -4.23584301278000    1.71059353050722
C          -1.25797531008797   -3.08175141870371    0.98825657415953
C          -2.64373258341223   -2.75618207543412    0.87028197054083
N          -3.13023371012576   -1.59417014367279    0.26353244505893
O          -4.34152275782211   -1.41351390546083    0.24785801514665
O          -2.32056024245748   -0.82838005140801   -0.23374033036051
C          -3.39136693442382   -3.73162718781936    1.53781844026279
C          -4.74139984795928   -3.74232235365827    1.90597044036959
C          -5.15234015725268   -4.45773518111817    3.01018397903219
C          -6.42019844431067   -4.89137362966819    3.41287777084824
N          -7.65813109843825   -4.73623416979327    2.83339610729707
C          -8.01469492974196   -3.85298291355621    1.74851004357793
C          -8.03514011116659   -2.39111311665314    2.18472999731988
C          -8.63637231580391   -5.51330894425417    3.47699388358394
O          -9.80425439737138   -5.53178078929220    3.14372430050567
C          -7.91766596392374   -6.22063314581070    4.52186282195771
C          -6.58361359462860   -5.80173529947441    4.47173759675697
C          -5.82895552438121   -6.54100830476175    5.46964076168269
O          -4.66643079369348   -6.49605393416050    5.80062133946478
N          -6.78315573682639   -7.39860037810756    6.04853302627009
C          -6.40576850549546   -8.34733974505410    7.07087360558587
C          -6.63499553459369   -7.78940870150346    8.47178272109175
C          -8.03307556090958   -7.21363420488167    5.51860242750049
C          -9.18288266792117   -7.90618833436328    5.93951484025390
C         -10.41593913749481   -7.67112943293762    5.39685930191718
C         -11.60574152336791   -8.31688748378572    5.79920588288553
C         -11.80038435041249   -9.27070159201685    6.78161716423316
C         -13.18383911662247   -9.60316541547204    6.84598276150091
C         -13.84732892297944   -8.79665964161454    5.80366528598280
C         -12.90113490604993   -8.03941714965836    5.19253588259947
C         -15.20214474278427   -8.82695474145836    5.44908750532529
N         -16.29777907000874   -8.83766433632580    5.10523132993171
C         -13.78989403627865  -10.47930458733125    7.71378501430371
C         -15.18577512121482  -10.76185415086379    7.83938203699558
C         -15.36613104128381  -11.71191219917894    8.80683020884896
C         -14.06273510111977  -12.05932436531262    9.35261383569477
C         -13.11146368173541  -11.32468358313499    8.71662236515805
C         -11.74136798187250  -11.38126236987274    8.98207688000107
N         -10.61873285428451  -11.44829201212044    9.22166039865990
C         -16.64048848401587  -12.20384011617042    9.29154842153809
C         -16.86563090178104  -13.51188659379379    9.59313208715878
O         -18.02726222955406  -13.97308953583418   10.08296648087792
C         -19.05539110669049  -13.11605110283391   10.30623932642959
C         -20.23633067153681  -13.64458654148454   10.82737470286959
C         -21.30789789969329  -12.80980448479991   11.05854288226974
C         -21.21999778772940  -11.44907765732517   10.77470757465813
C         -20.05594000219703  -10.92751051837739   10.25832767589068
C         -18.95446748382560  -11.75345534631009   10.01930992321067
C         -17.70881886557092  -11.19873853720083    9.46780196617576
O         -17.57253783334226  -10.01923851229040    9.20450227878660
C         -15.88784868296393  -14.62304773531855    9.37467403572350
H          -1.32218998230712   -2.57102058648545    6.31745788839638
H           2.67461936761751   -5.35251095651773    7.14385819447609
H           2.37178621972555   -3.22779164661561    8.38098876114199
H           0.37509149901268   -1.83644108658890    7.97797326638663
H           1.57556558887777   -8.19026599866414    3.94928019818494
H           0.04854878239336   -8.24354311325511    3.02583185483292
H           0.12274281754182   -8.89685106783035    4.66777743542560
H          -4.72803298411057   -8.65851200547885    2.84213822478826
H          -4.58305179593141   -6.52462084769595    1.25185628321364
H          -0.20795793682804   -4.75103010033728    1.92403793182851
H          -0.47063027055498   -2.48468902260748    0.56688584332676
H          -5.41324066858618   -3.12366172848050    1.32764179458738
H          -4.37551111802127   -4.76917133313823    3.69970243011505
H          -9.01690466744122   -4.15724652379956    1.43208459864329
H          -7.32296910761825   -4.00477765224670    0.91544155427491
H          -8.78621406250306   -2.24296030363748    2.95729659218716
H          -8.27926573995700   -1.75981949211249    1.33533431352464
H          -7.06885071890515   -2.08386269229753    2.57737987422893
H          -5.34376334973464   -8.55773811981890    6.91856730591379
H          -6.96167647778724   -9.27537158049939    6.92300481749196
H          -6.04217330683364   -6.88946830676287    8.61566533851243
H          -6.33447794195804   -8.52566625325126    9.21137931012915
H          -7.68413631075034   -7.54511995142058    8.62699475019377
H          -9.07534505426933   -8.63717295308028    6.72735932463000
H         -10.50894892967979   -6.93893962188298    4.60464405508377
H         -11.05036535573412   -9.69203338358922    7.42076613318439
H         -13.05310098016305   -7.34424402194619    4.38758465946700
H         -15.95727853418899  -10.29556232771477    7.26087463456181
H         -13.89336179646651  -12.75064781300814   10.15689089548038
H         -20.28624254097480  -14.70131943400054   11.03730241629899
H         -22.22247625221521  -13.21685147381592   11.46204978513889
H         -22.06628449944913  -10.80631351402261   10.96123471851313
H         -19.95505541464568   -9.87832771681425   10.02618047744594
H         -15.35252406532549  -14.84125946326709   10.29862906485427
H         -15.17073922922368  -14.36698624283179    8.60129494601911
H         -16.43002497336250  -15.52206459627572    9.08915680859804
