102
 SCF done       -197.364692993035          0.000917331008
C           1.22397381055152    2.78382643050835    4.04499242623865
C           1.87358918670195    3.81784099209373    3.38369376025821
C           2.82530560222398    3.55673557259146    2.40684070436548
C           3.11012105279632    2.23647319380288    2.11144000120509
C           2.45429375147245    1.19343949446982    2.77920582493341
C           1.50473931283545    1.45704901316137    3.74894470747339
C           2.93800235581784   -0.11118733600558    2.28232880911503
O           2.48887014665652   -1.20701428415633    2.55630310036920
C           4.01048291069054    0.20039593230501    1.31700571910247
C           4.06528913535448    1.67761315464549    1.13174427139883
O           4.75597810605946    2.27329926213018    0.33916653089941
C           4.82738836642192   -0.60991147505699    0.60315828113472
C           5.01976927136912   -2.01848476644709    0.68565565226605
S           5.44768438548291   -2.84253754906912   -0.78658015563611
C           5.52704841509060   -4.37215718295646    0.02111540678755
C           5.24588524534004   -4.23261236384478    1.37609978326784
C           4.98432518614544   -2.90485861497502    1.75304493500105
C           4.85970605007318   -2.53321227373929    3.19492922127665
N           5.54226990883149   -1.24392806651374    3.46157006508632
O           4.96350449725075   -0.44295895504630    4.15468634092085
O           6.64487821482829   -1.09580358201553    2.99575686680742
C           5.53969696841154   -3.59919019170339    4.06075562844707
C           4.91000137355208   -4.95430562990184    3.76946325004883
C           5.17329399598354   -5.38624690799971    2.32133394601992
N           4.07705582769544   -6.35079144016269    1.92716684354481
O           3.78065076624647   -7.16722496457600    2.75854824812177
O           3.57751961962692   -6.24007947512996    0.83957315581007
C           5.85379544982792   -5.58460064428572   -0.62581562232534
C           5.96553048160313   -5.78695494067347   -1.96220164104627
C           6.22621124731283   -7.09030707788110   -2.45311390996670
N           6.34550284264005   -7.42074754863316   -3.77757155790454
C           6.34105359971067   -6.50801520245598   -4.89412754817576
C           7.66267161015167   -5.75323606987022   -5.01347353365320
C           6.53084000551291   -8.81018639738776   -3.96395531674127
O           6.64949220565089   -9.32774467958623   -5.05118247778963
C           6.52331346390750   -9.34530792969796   -2.61888678265176
C           6.34295410567389   -8.27255040596694   -1.71609193292098
C           6.31976526519786   -8.82969542957577   -0.38538204560880
O           6.23800029258868   -8.30219897827112    0.71455713533189
N           6.45461700770334  -10.21160622948952   -0.56873765254491
C           6.49052923733924  -11.07991670082329    0.58463929598952
C           5.09217408582022  -11.53792573513013    0.99326081076709
C           6.57188942069422  -10.53983564295626   -1.90360526973138
C           6.72795605350868  -11.80841257400747   -2.52040198299818
C           6.49304423081183  -13.03488993252021   -1.99244541163407
C           6.65000527469005  -14.28736322665740   -2.66785084984607
C           7.30856510289175  -14.52151550100280   -3.87096634356951
F           7.91664954583830  -13.51603299087806   -4.51763468137661
C           7.41189134657338  -15.78681706487465   -4.46854463127647
F           8.08196736919554  -15.83154398037820   -5.62629539944678
C           6.86273081135386  -16.94501559645010   -3.92566207540119
C           6.18937006331267  -16.74644806062100   -2.68684486887527
C           6.09543637382114  -15.45427379456052   -2.06936407722239
N           5.43343373077652  -15.49964096240197   -0.91570197951541
S           4.97520962494230  -17.01589512620888   -0.63771725042861
N           5.59086973819772  -17.68748247766145   -1.96074437952388
C           6.91497735561664  -18.26554215940104   -4.47695769395725
C           7.55019346956652  -18.67076708519946   -5.60353896651677
C           7.50728328326350  -20.02976683398695   -6.01664289295317
C           8.13745384285200  -20.53527734395046   -7.10748189543260
C           8.05344550685920  -21.96384474147004   -7.49229894905250
O           7.43927339800766  -22.83475287426047   -6.91663824619984
C           8.87453564118324  -22.09865615309306   -8.71833179963067
C           9.13380829132149  -23.22054098794456   -9.48454241210703
C           9.94879770465710  -23.07861687661881  -10.59983567421861
C          10.48993863089970  -21.84507449746162  -10.93853235515562
C          10.23155734477453  -20.71663135472672  -10.17209474772101
C           9.42025760920264  -20.85435540423870   -9.06056175611568
C           8.99490456995970  -19.82331015448920   -8.08200044371251
O           9.29908822529954  -18.65115301333957   -8.09148899480340
H           0.48938436866914    3.01694164891619    4.80146444713532
H           1.63475508999006    4.84070986319432    3.63482751124004
H           3.33616612607868    4.35386234378104    1.88891920517349
H           1.00538914493094    0.64713729697258    4.25800202283520
H           5.40178933571274   -0.11232150317065   -0.17434407630516
H           3.80800222377466   -2.40275699026139    3.48337544215151
H           5.41198586624033   -3.35209018508074    5.11564512927059
H           6.60825233773679   -3.61778352948236    3.83210840530572
H           3.83244804622964   -4.88327051997944    3.93610430363291
H           5.30026854579509   -5.70634952762036    4.45421792972100
H           6.08756860841100   -5.98979711578712    2.25756868567506
H           6.01392755820378   -6.43299754904179    0.02369064444812
H           5.81551046265184   -4.97514920251244   -2.65926556478539
H           5.50325030428814   -5.81189023686996   -4.79511819747338
H           6.18645014061251   -7.12316866256332   -5.78497563938153
H           7.85566237626901   -5.16117480347324   -4.12147611473467
H           7.63139556804169   -5.09052439787955   -5.87368730688833
H           8.48079651375414   -6.45679958321584   -5.14662963546233
H           6.91944694270090  -10.48863302680301    1.39998568282960
H           7.14989604992246  -11.92489643239062    0.37805651156453
H           4.49464239068978  -10.67516036824549    1.27737473413026
H           5.15921152666008  -12.20987882139454    1.84439017394460
H           4.58927852624046  -12.05258829925523    0.17763775117104
H           7.01761254633834  -11.71768653652060   -3.55845655092260
H           6.08904516182044  -13.14828438295197   -0.99847855134008
H           6.37582730069708  -18.99755727529457   -3.88751599397586
H           8.11252748312039  -17.99047801998407   -6.22476195769215
H           6.92813727013254  -20.72601184753372   -5.41724267447084
H           8.70974301172891  -24.17537647354625   -9.21362090654845
H          10.16773537638179  -23.94030010032399  -11.21329997790274
H          11.12168134482739  -21.76428835431252  -11.81082527717309
H          10.64743452711708  -19.75382501273742  -10.42639467181835
