78
 SCF done       -140.984984907798          0.000980519061
C           1.18755087177274    1.69558313289038   -3.13941132421579
C          -0.11034182970620    1.98523319623631   -3.32697524132728
C          -0.92895231840431    1.91782197629057   -2.14753736962061
S           0.04533473159356    1.45576437008606   -0.76655270793000
C           1.55137024059469    1.35966342238814   -1.77443974783715
O           2.61423021507472    1.06397293628673   -1.31137796641665
C          -2.26247700129824    2.19101485789149   -2.15068418456772
C          -3.16882249345416    2.16974769860489   -1.06488564824150
S          -4.83240112452333    2.61338165457650   -1.35339874218823
C          -5.26019670653174    2.37432795238396    0.30975195372832
C          -4.13440328571354    1.96054086559756    1.04098674376115
C          -2.97384541921983    1.85015371949782    0.26708613000533
C          -4.12580065325627    1.68648583460523    2.41962655573552
N          -4.08079349508545    1.45948559078024    3.54408620966866
C          -6.58835647741693    2.62249511791622    0.71797918583790
C          -7.06325457975066    2.46134422044890    1.98605425363959
C          -8.39416292921704    2.76561607295244    2.34227865431074
N          -8.88785494971582    2.63568566938499    3.61669519935062
C          -8.15781706036159    2.20801153526654    4.78750780345375
C          -7.27922600705576    3.32129701784876    5.35107040030965
C         -10.23334208718988    3.03290373697839    3.70461261445151
O         -10.87705047508069    3.00285040422924    4.73248931610239
C         -10.58008634219191    3.42610921732841    2.35335389786987
C          -9.44029329142286    3.24623126438177    1.54317801087498
C          -9.78483008333734    3.63578168663000    0.19212783131377
O          -9.13864342229158    3.65660139052393   -0.83785315086771
N         -11.12429010337060    4.03833578885607    0.27779338333884
C         -11.85286259068593    4.45849400692606   -0.89499107778494
C         -12.76355106910287    3.35328073119874   -1.42408708094087
C         -11.62150219447520    3.92530915671931    1.55881631556782
C         -12.92467060890903    4.30361508818317    1.92980949437926
C         -13.39260341214864    4.20295403206694    3.21145394340442
C         -14.67169594043793    4.62104946344649    3.62967100439986
C         -15.15137638589759    4.56399959403263    4.93064195402330
C         -16.45795682326976    5.10423475660839    4.97595086744953
C         -16.78122592979819    5.50764458005615    3.59286959785329
C         -15.71394273251564    5.21546078748987    2.80489030219595
C         -17.96075205963499    6.11050457757128    3.14461763531443
N         -18.91361592196551    6.61589314220639    2.74687789408702
C         -17.28197428186240    5.26000010954556    6.07605764328479
C         -18.58868057984761    5.80830536081860    6.09493777427754
C         -19.06652504917481    5.82196623276880    7.39404198513765
C         -18.02951287910673    5.24184697470813    8.23957787645125
C         -16.96145939519445    4.90872803196877    7.47011213392394
C         -15.77579767505171    4.33662043134332    7.94519263395231
N         -14.81991749950427    3.86730944119980    8.37528806419853
C         -20.29355051004762    6.26008526873839    7.94186926563023
C         -21.30869770945745    6.96187398578783    7.35556119610050
S         -22.76051721595075    7.31410799968723    8.27856984456282
C         -23.51430382636555    8.19734324728484    6.88459926073636
O         -24.60545880516473    8.68604035359259    6.94447693938135
C         -22.55996500999631    8.17549928105339    5.79030530876170
C         -21.40788525453000    7.52970594329464    6.04138940848310
H           1.95159515552694    1.69441524153508   -3.89625846680220
H          -0.54631979772620    2.25466363520970   -4.27383351261255
H          -2.69396856576730    2.46805318631448   -3.10522408162279
H          -2.02624473891791    1.54696074318248    0.67298368811712
H          -7.26099522049084    2.97650574612322   -0.05357549570759
H          -6.40958353354198    2.09672866813872    2.76279187178729
H          -7.55703976809290    1.32816420966567    4.54328597815783
H          -8.91313119761786    1.92799335413508    5.52694747203623
H          -6.53145528153266    3.63597157970035    4.62677322258496
H          -6.76883819447380    2.96505082565036    6.24088952060264
H          -7.89054298168042    4.17959930093169    5.61910011430380
H         -11.09785776983578    4.70318845324765   -1.64732760213727
H         -12.42562564907841    5.36197088822951   -0.66714502137667
H         -12.17142772895341    2.48179385661850   -1.69224607681747
H         -13.28910282118303    3.70136686774424   -2.30895577365317
H         -13.49483900854025    3.05599328718847   -0.67558312491951
H         -13.56372249642465    4.70708075997920    1.15796655523415
H         -12.74801391558530    3.79052108070992    3.97679628317581
H         -14.61187672074639    4.17552501320995    5.77223799724814
H         -15.65172338384244    5.39702155453095    1.74805635012381
H         -19.11149650633985    6.11506690012464    5.21367151730162
H         -18.11260194997568    5.11804114576273    9.30369071596420
H         -20.44206885796536    6.00475528880992    8.98453342649680
H         -22.81443431502053    8.66570321207330    4.86715595495545
H         -20.60624731569423    7.45341229181824    5.33037624230716
