124
 SCF done       -222.084444997375          0.000416240911
C          -4.99074621492319   -1.90647316242936   -3.85454636953739
C          -5.07177304557951   -0.86287617243811   -2.80388818074024
O          -5.47636130986651   -0.95449601057106   -1.66541902145788
C          -4.47712162492329    0.33545792156823   -3.42668611564956
C          -4.17370513170136    0.08589290382965   -4.77994226972772
C          -4.63924793491669   -1.26119989818833   -5.11232437000148
C          -4.94571849424969   -1.78546526008696   -6.34280272689007
C          -4.53204233072899   -1.28242493238337   -7.66891851725590
O          -3.60944071284782   -0.54133592246827   -7.93782770869585
C          -5.40607714626629   -1.95327283677328   -8.65943750504676
C          -6.24615063526046   -2.85751498896778   -8.00552547987983
C          -5.95980696191460   -2.85271250782924   -6.55334605469199
O          -6.51421951784434   -3.55231418621165   -5.73179819854870
C          -7.16485930635864   -3.61468638725659   -8.70871606576859
C          -7.22277465919818   -3.45264911213463  -10.08672256051963
C          -6.38553006573980   -2.55617535382221  -10.73767147841235
C          -5.46277516577945   -1.79519794873211  -10.03132789019180
C          -3.57569764191583    1.08526268359378   -5.53200483345867
C          -3.30765046831189    2.30705286192278   -4.92765681291317
C          -3.62424219922037    2.54721648695881   -3.59867384773892
C          -4.21447347856848    1.55344945464167   -2.83073841966119
C          -4.96350455914885   -3.25932644651636   -3.68851235477407
C          -5.36840555649902   -4.03801385242314   -2.57733044384323
S          -4.92539439079361   -5.72668997233115   -2.56246433713703
C          -5.79256992935202   -6.01429875735022   -1.09266318044438
C          -6.40198373344801   -4.82739976560718   -0.65069650823530
C          -6.16058407181967   -3.73128163336913   -1.48653478842900
C          -7.17863928434976   -4.70852258489964    0.51429626524135
N          -7.81691779136835   -4.58264060257248    1.46015023015330
C          -5.80030864065714   -7.31653299666781   -0.54377535566211
C          -6.52529750967700   -7.70564302914299    0.54256935044940
C          -6.50280675622624   -9.02795341632955    1.03623937873446
N          -7.25671924236818   -9.45264353079106    2.10364651093313
C          -8.12369608851343   -8.64054346497458    2.92521661255781
C          -7.33716655584278   -7.79892653231112    3.92637263147697
C          -7.06364593622958  -10.81673817168865    2.37564550902891
O          -7.63426958075467  -11.41133696799484    3.26859532583318
C          -6.10489597916927  -11.24981938342113    1.38009042649158
C          -5.78111202772698  -10.13644031065241    0.57683934891761
C          -4.82182947937263  -10.56686965009945   -0.41933612240534
O          -4.26779179606919   -9.97183694217142   -1.32310300314332
N          -4.62627860188365  -11.92768777853709   -0.14801655228281
C          -3.69215813448859  -12.71710014762988   -0.91569415133993
C          -2.36952945187844  -12.91163210098647   -0.17907244027621
C          -5.38133074319673  -12.35923581237826    0.92017216418634
C          -5.38920496394394  -13.68568004323279    1.38914168605297
C          -6.18807772948549  -14.10416247093223    2.41697278176689
C          -6.23219918649225  -15.43137856244570    2.89342328637985
C          -5.46132598789132  -16.52329801854112    2.52591147704506
C          -5.87910833438354  -17.66121207801744    3.25715388222570
C          -6.98435573390037  -17.20948185579741    4.12467556399799
C          -7.17425023860973  -15.88235793762129    3.90753245664132
C          -7.71427018418993  -17.99178321491189    5.02608925114136
N          -8.33416089034578  -18.60791705096121    5.77172953419383
C          -5.35551233849605  -18.93853896627666    3.19606693933304
C          -5.77715975433047  -20.08603013907593    3.91308712754468
C          -4.94580784477420  -21.14570622204448    3.60638286270377
C          -3.97004380877125  -20.67682230835541    2.63643465277797
C          -4.19487440689281  -19.35967801158995    2.38832473330489
C          -3.41650323114548  -18.55559089700629    1.55263360783818
N          -2.75198035483376  -17.91292041654745    0.86874947208824
C          -4.85759047065436  -22.42600854455740    4.21089835732762
C          -5.61103395188162  -22.85732446990118    5.25266457608343
C          -5.32572203568904  -24.03006186549678    6.01352697206139
C          -4.10270131311920  -24.52147888481993    6.33478593175486
C          -3.98140559276734  -25.91218464752391    6.85216547259977
O          -4.86421895520796  -26.60133675582988    7.30688553023098
C          -2.57557185420562  -26.27809270462356    6.60214197537666
C          -1.87212803701102  -25.17027411342140    6.08162557069253
C          -2.76026303127259  -24.01001314427436    6.06426309115037
C          -2.44324849452605  -22.67942338752867    5.97854486815244
C          -1.31970184191894  -22.04768454755056    5.25882036492578
O          -0.35166413289188  -22.56612941135365    4.74360065358898
C          -1.67179366597281  -20.60887504733863    5.15367271137554
C          -2.83269336110535  -20.34300008046396    5.88452239043020
C          -3.31804607591069  -21.59703124683741    6.50244786987343
O          -4.17882098390315  -21.69718871574507    7.34700085746527
C          -3.37716657370708  -19.07309753594298    5.92053829357890
C          -2.74998575884007  -18.07516825857978    5.18610326905809
C          -1.59781822599632  -18.33903110459820    4.45624996869170
C          -1.04052842966589  -19.61062684702286    4.43416681436451
C          -0.52407266148257  -25.30711007611186    5.77970520222647
C           0.08668262065287  -26.53531662477182    5.99138895865595
C          -0.61377271880547  -27.61829926265224    6.50465083403631
C          -1.96003442654941  -27.49641518704334    6.81630210777130
H          -7.80834887994727   -4.31094413513285   -8.19327641745218
H          -7.92767071921933   -4.03412800408353  -10.66223321615485
H          -6.45396666292665   -2.44999327066368  -11.81018376819543
H          -4.80903188573912   -1.09523161412033  -10.52850510114236
H          -3.30264727563101    0.91740699375554   -6.56049058168099
H          -2.83793739267402    3.08592308781530   -5.50988171603684
H          -3.40594432981593    3.50901179649287   -3.15927360321995
H          -4.46851402045916    1.71242606196157   -1.79385488237200
H          -4.53930892763037   -3.84017653744509   -4.49863239632212
H          -6.54857324802793   -2.74695594310101   -1.29843886564691
H          -5.18364920592931   -8.04671405576159   -1.05320279321395
H          -7.15859865475492   -6.99421369677875    1.04890181534144
H          -8.77102820932109   -9.34005548725135    3.46139923076389
H          -8.74220993976703   -8.00313474393763    2.28805493409242
H          -6.74305794588952   -8.44288948096757    4.57048070824198
H          -8.02639332962963   -7.22896513805249    4.54233149398078
H          -6.67352854944583   -7.10359315621848    3.41791730531225
H          -3.51828720175290  -12.16182130209147   -1.84160363045049
H          -4.14488990084461  -13.68110008680852   -1.16301903426453
H          -1.90860686987560  -11.94694806694856    0.01899511483368
H          -1.69357186256292  -13.50201360135535   -0.79092964276501
H          -2.52011684381826  -13.42530345486829    0.76762678382270
H          -4.74656418642397  -14.39934755061019    0.89484531689069
H          -6.84466918799967  -13.39010725987932    2.89675953278435
H          -4.66818638287878  -16.52834752430241    1.80558383234243
H          -7.89843039932870  -15.24827547156668    4.38461904614187
H          -6.60392126556823  -20.10665504755931    4.59421374174087
H          -3.18858246642471  -21.28254153525167    2.21475625492661
H          -4.06200186993750  -23.06461288106404    3.84500664848586
H          -6.48225818367188  -22.29195746169820    5.55579547522327
H          -6.17103513198904  -24.58805567781340    6.40431401709682
H          -4.27486698021507  -18.87961913214649    6.48761291925159
H          -3.16534765537456  -17.07781682452742    5.17843018373183
H          -1.13248348103916  -17.54434278094154    3.89278777453293
H          -0.14534942385485  -19.82328333035952    3.87036463892116
H           0.03784164753683  -24.48305736524452    5.37293877310290
H           1.13429066501876  -26.64661667829589    5.75372291204867
H          -0.10691568132503  -28.55807984554285    6.66530319063486
H          -2.52524333266338  -28.32094293427579    7.22314196019629
