84
 SCF done       -168.236951390980          0.000694183483
C           1.91016444707045   -2.16992590793877    1.54732243730382
C           1.38682372555427   -3.45921359831236    1.67148453280350
N           0.95970273023428   -4.51869391764526    1.77211663122449
C           1.27712364819099   -0.97851895919653    1.83772408197257
F           0.03038532291445   -0.90195789188730    2.29411098446694
C           2.08496564182405    0.14552084707505    1.60179189889240
F           1.68367799239518    1.40087440899313    1.81136355100326
C           3.34446527775420   -0.17391426293566    1.12833454768124
S           3.52693644088475   -1.89581221854316    0.97558151488543
C           4.35730913392199    0.71263583293277    0.80496939322732
C           5.24880119496216    1.48574698532516    0.51842071322465
C           6.21931109302145    2.41970626823957    0.20270485844381
S           5.89803005441011    4.12251768905157    0.40000825497138
C           7.48976581823631    4.53465624273493   -0.17680649130797
C           8.20790492900846    3.37841320858099   -0.49620510220434
C           7.48875697167847    2.19275661390042   -0.28029562091759
C           9.52755924794944    3.38639002673359   -0.98547165451112
N          10.60151136107522    3.34494738694744   -1.38291940267416
C           7.93458043111058    5.86942867450871   -0.29077889807781
C           7.16821820258830    6.93956816634045    0.05973404607736
C           7.59811124622303    8.27793945656783   -0.05987261220075
N           6.83011028974023    9.36340893823107    0.29292679839745
C           5.47280324826668    9.33938904397246    0.78239854349730
C           4.46582641302543    9.11360423153653   -0.34265673652291
C           7.50084843548437   10.57743917770037    0.07153495568397
O           7.01382266525573   11.66428596081916    0.31391133511250
C           8.79090994196000   10.18441178338149   -0.45431702398686
C           8.81986653328094    8.77573993983491   -0.52202881103107
C          10.10950858208832    8.37701558251148   -1.04887855269497
O          10.58285755762889    7.28518862057139   -1.28617508222813
N          10.78139306393154    9.58854190128891   -1.27192671429129
C          12.13889514725489    9.60982311089356   -1.76466827404465
C          13.14808506805438    9.83852886352971   -0.64277156492208
C          10.01830962414115   10.67809054050911   -0.92099286517467
C          10.44835439792751   12.01340833607243   -1.04303877115658
C           9.66441909825071   13.07277449985636   -0.68091442119414
C          10.05760786678108   14.42524579930303   -0.77072304363869
C          11.25669321659106   14.96932676062268   -1.19831563482294
C          11.19770950612753   16.38196545596950   -1.08631647434460
C           9.85389238326773   16.69732930345943   -0.56101964188560
C           9.18977145624647   15.52796691858671   -0.37845477293848
C           9.33343981616890   17.96873678919298   -0.29510815665983
N           8.87642077725511   18.99819165835859   -0.06966991120641
C          12.19388310646565   17.29010850150305   -1.38121715217753
C          12.15949010557855   18.70171892724474   -1.22672795054994
C          13.37548060792899   19.23510607659453   -1.60406452168803
C          14.22781167667970   18.13578892840420   -2.03104803005455
C          13.53639088472656   16.97203959692855   -1.90270347820950
C          14.03408883943815   15.70442682362443   -2.21944881013949
N          14.46901758568448   14.67477232652067   -2.48789359490397
C          13.71795439841808   20.61073103639163   -1.55540001339691
C          14.92556379795017   21.12683602125300   -1.89951817228623
C          15.20498502681439   22.48054064579948   -1.80228350506217
C          15.43838590134652   23.66907755294555   -1.69665443849192
C          15.69365679767348   25.02175541133041   -1.56428732378981
C          14.81897331511832   25.99437286671223   -1.11145063197674
C          15.37959457997929   27.28051645827396   -1.08320545044828
C          16.69088095642100   27.30965654829957   -1.51436716458434
S          17.23631954331377   25.72268793555718   -1.96132439361260
C          17.52835470248872   28.42327327573266   -1.60480161939042
N          18.21997457193580   29.33524078394755   -1.67852824383845
F          14.71667501222922   28.36177624298296   -0.68147242925444
F          13.56614363195136   25.72748063633455   -0.73845844264476
H           7.88074838998936    1.20940642313528   -0.46996935139019
H           8.93438488009874    6.01778693035313   -0.68160490900211
H           6.17540923907475    6.76357425884730    0.45339508261967
H           5.29893595310557   10.31843581565576    1.23752577127389
H           5.37537708917424    8.57071550937760    1.55410366734474
H           4.54473409341496    9.91186685679371   -1.07644881194051
H           3.45768899091042    9.11245352014639    0.06197243539343
H           4.64333477004881    8.16450912777298   -0.84370501165792
H          12.23500962464958   10.37734495919124   -2.53719499245238
H          12.31059415902284    8.62944775505521   -2.21757974787770
H          12.96944232868839   10.78729536673763   -0.14159039317353
H          14.15392267394075    9.84525974047495   -1.05249688432862
H          13.07636918667085    9.03922955994555    0.09080815906330
H          11.43666088814765   12.19295052402160   -1.43995212330360
H           8.67349458640099   12.88221053862809   -0.28976255089068
H          12.11137682385299   14.42812252610603   -1.55158307048742
H           8.18888134740089   15.40608961905491   -0.00767418322299
H          11.31888433299809   19.25907692322456   -0.86256621397146
H          15.23639988114996   18.22766440521770   -2.38914959602803
H          12.94581816744527   21.28282500358275   -1.20313894041367
H          15.72833755184224   20.49695977290321   -2.25898581341095
