104
 SCF done       -195.689577856964          0.000975423480
C          -6.39394845409286   -0.76235627910771    1.28480037966161
C          -6.47737247047536   -1.30623158497371    2.64817872314349
O          -6.15732467264802   -2.41925398937817    3.02193862532421
C          -7.03022671339200   -0.22566402385929    3.48495575627442
C          -7.25639021204010    0.91154096963907    2.68865913207637
C          -6.85817021846699    0.61613851545299    1.31475177257833
C          -6.91557106428427    1.49658756768915    0.26758937109254
C          -7.37930228877388    2.82609880532506    0.37721366262732
N          -7.74851164957247    3.91236668996478    0.39410920182819
C          -6.52215437257368    1.22811057915681   -1.06119802508549
N          -6.22136741371936    1.09145339596506   -2.16093934474760
C          -7.78374663358969    2.05464136801719    3.27344720529160
C          -8.07191186041288    2.04131742500755    4.62935438138282
C          -7.83931796535901    0.90688690422196    5.40074562873933
C          -7.31203072188032   -0.24877788734625    4.83518498435815
Cl         -8.21225766213542    0.93559926468574    7.08056202626905
C          -5.97145289869976   -1.44790967581191    0.17890351707574
C          -5.53486062674813   -2.78053371168107    0.04976607288027
S          -5.38347422619434   -3.97769362765780    1.30795877387661
C          -4.86325373441438   -5.17942855169366    0.17210362006506
C          -4.78850265921948   -4.65564130847524   -1.12904792730652
C          -5.16518511123197   -3.31613559109409   -1.18165182403439
C          -4.31869314516335   -5.34304212228514   -2.26428780135573
N          -3.90731460159267   -5.84867555521850   -3.20769481581485
C          -4.59855867927227   -6.48900684356352    0.64246558132501
C          -4.49910898161477   -7.59045497672209   -0.14869934016212
C          -4.26964242642782   -8.93358706299638    0.23709353161049
N          -3.73863119425401   -9.43749218880033    1.39934420565746
C          -3.21491757822793   -8.72177411531459    2.53869017450743
C          -4.27145372342784   -8.54033851012163    3.62677987779537
C          -3.68132127746100  -10.84750013107287    1.37973068318566
O          -3.22873422954115  -11.50632432449972    2.29233284247950
C          -4.23933537948488  -11.21745831339614    0.09674465406846
C          -4.56999252127645  -10.02783504857983   -0.57947337545778
C          -5.17397875211470  -10.37411105525723   -1.85091434656032
O          -5.63349506691640   -9.70165554689387   -2.74466949629451
N          -5.15697503452411  -11.78454984107344   -1.85798109223246
C          -5.62442903658942  -12.52589455255416   -3.00449163849618
C          -4.46815815297896  -13.04280468907701   -3.85654212789040
C          -4.60858626211949  -12.30446519548759   -0.70979976425203
C          -4.51421307653282  -13.68376944689044   -0.43954641600433
C          -3.91609477405419  -14.18383506378451    0.68269253098368
C          -3.85077278409788  -15.55643684613584    1.00391875997785
C          -3.19341367341259  -16.10151251510448    2.09406115836897
C          -3.38597682051516  -17.50712569967870    2.10725039256778
C          -4.22919174047293  -17.81385732212966    0.93414812006813
C          -4.48506397174576  -16.65217001405038    0.28077669560350
C          -4.70237189214608  -19.06942724087076    0.53609758482144
N          -5.11680449922160  -20.07816309719624    0.17461498350238
C          -2.90222054864502  -18.42591003723460    3.01527864849846
C          -3.16313759624697  -19.82279659167061    3.05375875186499
C          -2.49449641834118  -20.38561168848445    4.12282090593986
C          -1.76559742576313  -19.32152118370917    4.79835408635825
C          -2.00627038116919  -18.15042501472296    4.15302638076853
C          -1.46941348634940  -16.91011484465900    4.51796245172392
N          -1.01345749069031  -15.90992430658119    4.85077396253617
C          -2.51670263330742  -21.75874678583408    4.46378653590743
C          -1.87487282193020  -22.31717029873170    5.52576552321211
C          -1.93873631961340  -23.68589603441908    5.88400967758263
C          -2.24816082531763  -24.78643210830008    5.14044559186903
C          -2.65429035976692  -26.02994339842880    5.85813829054472
O          -2.53187334141891  -26.25374283820763    7.03877220503242
C          -3.27793373540693  -26.88553468725206    4.82637417711130
C          -3.12819384124158  -26.27932098342131    3.56560065854330
C          -2.35721836891641  -25.04661207729372    3.71939473163300
C          -1.67397402103674  -24.42093533585275    2.70977892051037
C          -1.73371569400070  -24.81918959757659    1.35740171062041
N          -1.75060084221543  -25.09771900654237    0.24445868381636
C          -0.77032211937152  -23.35790328740719    2.90821837965198
N          -0.00548762035804  -22.51002570740146    3.02290955758246
C          -3.67425577565824  -26.88608410566246    2.44421940461919
C          -4.34624819424146  -28.08880813162848    2.59744840211784
C          -4.46919541262910  -28.68447999411835    3.84884776274605
C          -3.93734577866754  -28.08685618147022    4.98623818776698
Cl         -5.30082872921986  -30.18536416403693    3.99044745534624
H          -7.97495204069046    2.94705223762757    2.70084610761148
H          -8.48318426774743    2.92225829390231    5.09655594808293
H          -7.12784698363786   -1.13461288510892    5.42206996661583
H          -5.97381601066625   -0.91425140272570   -0.76373112306821
H          -5.17214730295118   -2.73858710873522   -2.09014059814023
H          -4.55776497533745   -6.57392989218069    1.71819000083091
H          -4.67960321364882   -7.48591916023752   -1.21121289957813
H          -2.80820503716672   -7.76542986267511    2.20415594766361
H          -2.39971110140975   -9.33207151194057    2.93969128509162
H          -5.15592825602928   -8.03545337852134    3.24370249946613
H          -3.86027054754032   -7.95781761932704    4.44643472840868
H          -4.57122238277453   -9.51308574196581    4.00808550147517
H          -6.22628591139427  -11.82457427951605   -3.58917226298640
H          -6.26623034703040  -13.34815487190504   -2.67486921524679
H          -3.87038620667745  -12.20849164715460   -4.21475380310729
H          -4.85720080888927  -13.58403684676516   -4.71438972047516
H          -3.82523432254119  -13.70797439909865   -3.28397575729488
H          -4.94188312226556  -14.36063507948707   -1.16467583533342
H          -3.45959580968885  -13.50099907801332    1.38752665714652
H          -2.63078331755076  -15.54784335214979    2.82009107227005
H          -5.07215047678624  -16.55662961971063   -0.61347063017539
H          -3.78654871867458  -20.35087850830148    2.35908644642073
H          -1.13701279965103  -19.44587771710628    5.65955521049219
H          -3.13683659916108  -22.38306786717185    3.83225564982072
H          -1.33830309489432  -21.67572475222333    6.21065306904842
H          -1.78162622919655  -23.90391791333057    6.93736863246291
H          -3.59841365856456  -26.43824857068714    1.46661746311466
H          -4.78108229859639  -28.57265044853500    1.73703029736165
H          -4.03238147133623  -28.53866655852946    5.96084703846389
