80
 SCF done       -160.870757534600          0.000358579427
C          -0.55294440612355   -2.61332842843728    8.41745988134135
N          -0.55225124372800   -1.43701370031056    8.97934618751385
O          -1.77194804526854   -0.90997619727166    8.86598189478273
C          -2.57005058333819   -1.77516066008351    8.20657127376696
C          -3.96539311242116   -1.48692412500329    7.99997772097473
O          -4.72911240568132   -2.20325514875599    7.38299522972287
C          -1.82986608945341   -2.90665466642981    7.88226211608064
C          -2.34395318669724   -4.05622342776243    7.16885531371682
C          -2.93567546975810   -5.16423620372082    7.73760118013693
N          -2.99732919293125   -5.42271033380608    9.11591120419843
O          -3.55391367352441   -6.44006535986444    9.48248585088530
O          -2.49590584011576   -4.59616092954725    9.86522731568260
C          -3.53449510391684   -5.97389874821539    6.70472727074760
C          -3.37512748399925   -5.32779785497471    5.52761344930170
C          -2.61661491818845   -4.11338234917550    5.75573262596945
C          -2.15798841423975   -3.23509094376370    4.78508141897262
C          -0.93848425141174   -2.52016301341350    4.76047672644460
C          -0.71165107641898   -2.08838968487472    3.47438743038797
C          -1.81977899550861   -2.43586985224445    2.65577364550470
N          -1.94527069427406   -2.07034475214030    1.30972915987618
O          -1.01771342097437   -1.46482751784418    0.79987704862090
O          -2.96976077662500   -2.38198989540255    0.71847196481162
C          -2.78087972239525   -3.07824606326438    3.45358877546541
C          -4.13071981104631   -3.29872411072068    3.19562696385356
C          -5.06339774899092   -3.35054136369279    4.21560416327663
C          -6.42270567066873   -3.57759038246836    4.07939851571558
S          -7.23758986325851   -4.08449429537716    2.60879249875415
C          -8.81458487130526   -4.15819229463372    3.36992142701503
C          -8.70582146232211   -3.78765407284951    4.72493937497593
C          -7.37781643791385   -3.46919421928310    5.10252470860951
N          -7.36329308388058   -3.10871742272476    6.40084719997518
C          -8.65319960918566   -3.18503292374687    6.87400851273214
C          -8.98524648818074   -2.85396282474824    8.19694279275501
N          -9.27564038681761   -2.57710452493590    9.27092415787802
C          -9.50941649351248   -3.60348621349157    5.86865000341971
C          -9.96843811973231   -4.54730355015825    2.68822887487940
C         -10.00335046332095   -4.86883606160213    1.35527611710233
C         -11.14267978381792   -5.29470168947190    0.65329438194087
C         -11.18643086553923   -5.60123566653780   -0.70082832904999
C         -12.49225473652191   -6.02829184135459   -1.04552012111256
C         -13.28372192268257   -5.96027395782664    0.19831749872106
C         -12.47583741626533   -5.51788902779250    1.19543440103438
C         -14.64347419167965   -6.26081325594807    0.35001341848817
N         -15.75668842252821   -6.48744425929621    0.51624756327553
C         -12.94789597632154   -6.43922132911005   -2.28218371904824
C         -14.23001906227414   -6.95586467986929   -2.61061209902836
C         -14.26846400836418   -7.25147906313278   -3.95778015351039
C         -12.97298730086185   -6.90185815772936   -4.52716406506355
C         -12.17138687729000   -6.42860682892877   -3.53968401569372
C         -10.85236458191197   -5.99521322471887   -3.70985751632750
N          -9.77079629597635   -5.64830974558864   -3.88225856705143
C         -15.32604908858853   -7.80434184134923   -4.73090141843761
C         -16.49673882596604   -8.25383853076619   -4.22086905502744
C         -17.54242719443285   -8.81091324898833   -5.01587588117348
C         -18.72456164884749   -9.40116683257018   -4.56320365769897
O         -19.45116734904350   -9.79371338638165   -5.62584559414242
N         -18.79582934185429   -9.48371676786453   -6.75663440288365
C         -17.67557438981124   -8.90965723332767   -6.43216368322558
C         -19.23219285033583   -9.64653903662451   -3.22333943491020
O         -18.64578282621802   -9.36402174947010   -2.20936682641589
H           0.33014777743597   -3.21881329934738    8.40732214041662
H          -4.30397634612562   -0.54782179780015    8.46511081439674
H          -4.01232404838891   -6.91581792227690    6.89014660811506
H          -3.65908862127565   -5.67982862046015    4.55511411300000
H          -0.25080134027189   -2.44271616187875    5.58069696061557
H           0.15514325340142   -1.56744060700752    3.11195401047715
H          -4.46102646411364   -3.30609631048449    2.16445442656699
H          -4.74146036445016   -3.12791954440217    5.22539341080989
H          -6.55042163076692   -2.80934901025198    6.92858997305086
H         -10.56664092863983   -3.74672150465962    5.96435054685053
H         -10.87361969067534   -4.58764667158619    3.27821619458020
H          -9.08487611827452   -4.79594370665789    0.78509495162689
H         -10.35792284664058   -5.53796314383328   -1.37872359135093
H         -12.76977324589516   -5.36139282740136    2.21621949688406
H         -15.02703838500309   -7.09270198972321   -1.90725489026812
H         -12.71076560144905   -7.01453155261768   -5.56324735484298
H         -15.14575196833572   -7.87601247378731   -5.79610724315627
H         -16.68402735381886   -8.22382759447777   -3.15740367651687
H         -17.00459707785467   -8.57889335543640   -7.19832839961335
H         -20.22524542486495  -10.12878643471647   -3.22084721128330
