91
 SCF done       -184.530269990501          0.000947760576
C          -3.89597857468770   -1.15012249948360    0.83482925200647
O          -3.82754823465829   -2.26883569876382    1.30846669075168
C          -4.55850096828073    0.01642662655513    1.44604747738883
C          -4.40720900817345    1.13434813891017    0.60612099808543
C          -4.96571946664354    2.34650438199306    0.97693768878929
C          -5.66221220832406    2.42098000730399    2.17848005017768
C          -5.80256935873394    1.30464929474216    3.00686283354982
C          -5.24571397414467    0.08655555401357    2.64009031845141
Br         -6.75271228382552    1.43459845402328    4.63447124282088
Br         -6.42797143268862    4.07415348031704    2.68018136263155
C          -3.63374764378495    0.74136782358379   -0.57111265159899
C          -3.25248932907771    1.58377565571507   -1.58010202727522
C          -3.57420497448104    2.95872498241797   -1.62368192644963
N          -3.80467097340555    4.07874226385184   -1.71494045321461
C          -2.48181021274769    1.22655201513851   -2.70836552551979
N          -1.85541689317966    1.02151206338203   -3.64807955947247
C          -3.34605919696395   -0.67819220652083   -0.44350122896149
C          -2.69888411335062   -1.45302518807656   -1.36854903824675
C          -2.40323744756139   -2.82859017639398   -1.35367981543445
S          -2.77120293250202   -3.98310993157014   -0.09273953078612
C          -2.06688255742635   -5.28587278287294   -0.99567125881968
C          -1.56689812925381   -4.81833054672883   -2.22069297595044
C          -1.75997333523010   -3.45650602473963   -2.41456706307486
N          -0.86580394948201   -5.61617954837143   -3.17705209203015
O          -0.39264348579965   -6.66887395441535   -2.80597477841948
O          -0.76716494108275   -5.16215932486527   -4.29737901994975
C          -2.11566545307704   -6.62219284702957   -0.53940613614580
C          -2.38395801768220   -6.95482727694221    0.75289956250086
C          -2.50645119432636   -8.29607998740235    1.18324976108671
N          -2.57594961431823   -8.68408405791536    2.50162883612726
C          -2.54484233926507   -7.81783040870054    3.65607709652807
C          -3.90671096946666   -7.18457187784664    3.93021281280103
C          -2.69804026180236  -10.07591235543846    2.63552510991803
O          -2.75695481969722  -10.64769574682697    3.70620810857082
C          -2.71737431609157  -10.56660271166501    1.27315722472899
C          -2.59175229520361   -9.45325588320818    0.40949965842255
C          -2.66414518268188   -9.93455008527771   -0.95484584281250
O          -2.64420118173328   -9.36236055287143   -2.02233942794960
N          -2.81411594188127  -11.32934695324142   -0.82026963401183
C          -2.84530933373890  -12.18693400216753   -1.98102003425915
C          -1.49995508451588  -12.86821197280535   -2.21758590901043
C          -2.84682273171256  -11.71814351398777    0.49473098163480
C          -3.01630415202680  -13.06564781278064    0.91210199998873
C          -2.99043281451344  -13.43500323963814    2.21340888525785
C          -3.14495848727937  -14.78811550368847    2.66623542272115
C          -3.76598810386611  -15.81218762696017    1.93146817109523
N          -3.83579365114063  -17.05009217425654    2.35959917998257
C          -3.26460721706363  -17.33351928138247    3.52883394041684
N          -2.72672858873542  -16.42620998758664    4.35114786764476
C          -2.68647093307713  -15.18275160764209    3.93517960817136
C          -3.30158985921673  -18.71545564518384    3.95691770633903
C          -2.43272490331522  -19.32950366119661    4.78358313977079
C          -2.79091230289323  -20.63277072211885    5.42496539544449
O          -3.67779655879643  -21.38172933799076    5.10374560799155
C          -1.85799682807581  -20.75595015413015    6.56547584370940
C          -0.92229097624101  -19.70360026293771    6.53110033379638
C          -1.15982510116770  -18.89352354952565    5.34060236434090
C          -0.24942327463148  -18.07296388352498    4.74240314378868
C          -0.41246771302674  -17.50249695338196    3.46009853373105
N          -0.44886052116364  -17.06041782784364    2.40228914847871
C           1.01265456036183  -17.76820869058459    5.29896887321025
N           2.04073746833408  -17.48592349427195    5.72146325915262
C           0.03413879798332  -19.59914711012884    7.52786677735221
C           0.04890071833026  -20.55328058324124    8.53815901159955
C          -0.87300264970046  -21.60458299251892    8.55634652381357
C          -1.83907639568078  -21.70871819550848    7.56426243674921
Br         -0.81902587085247  -22.89484516257728    9.93392797817303
Br          1.34512678446944  -20.40913179557960    9.90374145794147
H          -4.88078074681286    3.23008015968382    0.36576176153916
H          -5.34845072938621   -0.78362125883748    3.26954559412859
H          -2.36490634152422   -0.96278394314199   -2.27482974800628
H          -1.43156468815629   -2.93973827997539   -3.29967067238807
H          -1.92208488857676   -7.40008726907278   -1.26780137847835
H          -2.49079061869616   -6.16897453639254    1.48858788576912
H          -1.77897990137768   -7.05080071775027    3.51391555884580
H          -2.25963112471122   -8.44976545158152    4.50182856018662
H          -4.23262750235054   -6.57191895689666    3.09275809521240
H          -3.84728858924552   -6.55971125663581    4.81681628988607
H          -4.64855636595862   -7.96063924580092    4.10172731073918
H          -3.08070667411438  -11.53643274564876   -2.82797259578233
H          -3.64515259802575  -12.92476317239646   -1.87217459048933
H          -0.72705457315127  -12.11870981142537   -2.36830228172756
H          -1.55586222323742  -13.49116824497193   -3.10572156890122
H          -1.21907705363533  -13.49016965116657   -1.37038418974052
H          -3.14899538805690  -13.81054821217331    0.14094062716699
H          -2.80709406548095  -12.69001118530808    2.97730941091613
H          -4.25067261476434  -15.61826065289185    0.98350422197717
H          -2.25497948315536  -14.46220699104501    4.61860100842571
H          -4.14937350937672  -19.29147740250280    3.60564811088993
H           0.75480948209624  -18.79731013984047    7.54598167592104
H          -2.55745686624381  -22.51381640386954    7.57166716564631
