71
 SCF done       -133.996436191850          0.000611087918
C           1.95476055031722   -0.81737275876198   -0.78089185553337
O           1.35358960200976   -1.29847791104498   -1.70806637904068
C           3.07705594497881    0.14787728206200   -0.88099294175908
C           3.44196097374429    0.59382414356850    0.39976590723681
C           4.46813362257211    1.51612253968666    0.53556120698379
C           5.11061329270825    1.97018677302269   -0.61005724333802
C           4.74015737524139    1.51948477608573   -1.87786852574571
C           3.70864402997304    0.60059561478228   -2.01990005171754
Br          5.63720065141154    2.15456296839410   -3.41512959929981
Br          6.51263417374095    3.22615026521847   -0.42744049402153
C           2.59606036134163   -0.06725670422224    1.39113511838659
C           2.69522048677988    0.10286406166056    2.74879479803603
C           3.61401956143106    0.97485975196793    3.37058201334395
N           4.33479868112746    1.66640157005107    3.93641296467490
C           1.91693944063170   -0.55537289229379    3.72427728592077
N           1.33581356040285   -1.04518852157756    4.58538447933160
C           1.69200269942152   -0.95012237461883    0.67884091153967
C           0.69907521089551   -1.69427960406018    1.24759631122996
C          -0.09830617912827   -2.67257903632255    0.61455317934523
S          -1.57445346125829   -3.27115491415489    1.40735155524489
C          -1.72651071927685   -4.33505834232909    0.02170953126261
N          -0.73694770897132   -4.18789875965340   -0.83084670317661
N           0.13133683514343   -3.29469424029870   -0.50695725789973
C          -2.80236293504623   -5.24360170375593   -0.14088201926535
C          -2.91015970870900   -6.01344852456542   -1.24994643482105
C          -3.94113366169875   -6.95993128272923   -1.53233989648610
C          -3.94868482590346   -7.66166306430357   -2.75608233194445
N          -4.85671782005057   -8.54463321558199   -3.07632737224244
C          -5.82612213625289   -8.78545235385025   -2.17806422079344
N          -5.92402707085362   -8.17304042409846   -0.98150781210462
C          -5.00848071186997   -7.28937785167388   -0.67512448539758
C          -6.81539565263255   -9.75425599594068   -2.49951450461656
N          -7.82786044927111  -10.06429876327227   -1.61769809302478
C          -8.60228866794190  -11.02164127934826   -2.18030949384853
C          -9.71947011663086  -11.82842553521344   -1.98251738725126
C          -9.84807404836343  -12.60837419387074   -3.13879151823891
N          -8.83836817279190  -12.28455449097729   -4.02138209522571
C          -8.05934660443554  -11.31964683099708   -3.46156326342568
C          -6.93992709528137  -10.52616246413505   -3.66192576645574
C         -10.79971234998147  -13.60609029863118   -3.47468881168120
C         -11.81612265661378  -14.01797807671059   -2.67673202271835
C         -12.75761541137244  -15.02482726480440   -3.00786025649696
N         -13.75073622817219  -15.38161137155124   -2.11453793725886
C         -14.50422366655971  -16.36569461311789   -2.66958073090001
C         -15.59661018576435  -17.20835941905053   -2.45742283516221
C         -15.71667734413457  -17.98028540467631   -3.60998083136639
N         -14.73010337337945  -17.62524491699645   -4.50624141779118
C         -13.97481757859020  -16.63896487054939   -3.95273163594372
C         -12.88312999843044  -15.80166484606552   -4.16566771473952
C         -16.66061203370048  -19.00940710820031   -3.94147940522484
C         -17.65028344504449  -19.43524097634786   -3.15763766869343
H           4.78112125719478    1.89180108617902    1.49599668056278
H           3.40841206467998    0.24422531132032   -2.99306396347847
H           0.47601477626680   -1.54798827380525    2.29613408336510
H          -3.52865478509655   -5.28142277038626    0.65700105510424
H          -2.14246398763660   -5.90377392831579   -2.00521890371262
H          -3.17562036155423   -7.48252505112286   -3.49427168461267
H          -5.11932246873989   -6.82181226410739    0.29538518181425
H          -7.91827730317572   -9.62152123816873   -0.71914603196076
H         -10.36267266022175  -11.86146279757906   -1.12717931625881
H          -8.71257706258614  -12.70953430962900   -4.92360818403909
H          -6.27924729114840  -10.47599439875644   -4.50236006206725
H         -10.68055218587842  -14.06501146231549   -4.44662351146973
H         -11.93405905270008  -13.55992466334032   -1.70394767938506
H         -13.87300537741457  -14.96904726324914   -1.20608972815973
H         -16.22607109246584  -17.26618374348880   -1.59318087782731
H         -14.60781255682609  -18.04125834874112   -5.41330695616472
H         -12.25481683840588  -15.74742970145996   -5.03133342908489
H         -16.52738717016155  -19.45643431287844   -4.91987544066445
H         -17.81964061402998  -19.01982710776402   -2.18018728618065
H         -18.32184232580602  -20.21329130853937   -3.47400019361787
