94
 SCF done       -196.002584456248          0.000408753733
C           0.02417673312861   -1.57119367919983    0.64902971236356
O          -0.51933099129891   -1.99373353644266    1.63741063823931
C           0.97541201981514   -0.43427557508243    0.59471914690153
C           1.31543665377508   -0.15362744957262   -0.73901527836572
C           2.18712019340433    0.88750267973342   -1.01875487025665
C           2.70657426002633    1.62346006305911    0.03927403427555
C           2.36414939192359    1.33406531268508    1.36223631007691
C           1.48529117192994    0.29733213533345    1.64678281455674
Br          3.09044288482897    2.34887262842332    2.78042664809199
Br          3.89687230873505    3.04180792642295   -0.34258411934327
C           0.62743698746999   -1.09993590151326   -1.61381582629431
C           0.77600365332370   -1.16856626191565   -2.97380651268600
C           1.59047538102846   -0.29340704227798   -3.72552749032534
N           2.23084613349814    0.38600317414438   -4.39252712557773
C           0.16432123084913   -2.11423001590566   -3.82524581390141
N          -0.28059078733499   -2.84956532735042   -4.58667923504012
C          -0.16848725173316   -1.97676755199139   -0.77188472002300
C          -1.02277783744245   -2.93789384182603   -1.22199123807029
C          -1.68884946974973   -3.92126797107894   -0.45738114945692
S          -2.97077825408582   -4.90350091309715   -1.21490971399878
C          -3.01589814015095   -5.77300496386684    0.30915945574379
N          -2.14650163455958   -5.30400613060448    1.17656396589930
N          -1.43837695806484   -4.31272684784223    0.75566535560055
C          -3.84576837077402   -6.88357665096097    0.58251203655960
C          -4.65263939838796   -7.43845703563557   -0.35299280256752
N          -5.49109579415310   -8.49471487428455   -0.19852516513515
C          -5.71249147744798   -9.06950027480992    1.12124787074813
C          -6.39481273324300   -8.10248069603159    2.08545038451075
C          -5.75018359872532   -9.26875310664879   -1.33581624057225
C          -4.84759228678399   -9.37524404576547   -2.36015916455239
S          -5.37203029458805  -10.39852257615689   -3.62448269667395
C          -6.82863657130540  -10.71600617119260   -2.79728062995037
C          -6.91412006895921  -10.06483172131087   -1.59813943896853
N          -8.07599385496389  -10.17845688726485   -0.81232163156677
C          -8.77805294158560   -8.93940227907322   -0.50930149403893
C          -9.59642768349413   -9.03022934841473    0.77079366861812
C          -8.62905695836311  -11.40754716156053   -0.64900155838446
C         -10.02115232756823  -11.68007065859388   -0.75652053120575
C         -10.96319911417714  -10.82443817869263   -1.48127559072798
O         -10.71999817761576   -9.92314130967204   -2.23257903060702
S         -12.64291473600796  -11.43130035958835   -1.22103658467987
C         -12.06849991051979  -12.89954248838492   -0.40658695262992
O         -12.81478804817274  -13.75699771157636   -0.02090567189236
C         -10.59279732360040  -12.87402043140799   -0.31199045265246
C          -9.82988803011392  -13.95531105396002    0.15979745366461
C          -8.44604224806658  -13.75733248894591    0.06734928820387
C          -7.86362303373387  -12.54676417421352   -0.29971257576219
C          -6.40046695090261  -12.72366739752142   -0.16800523757366
O          -5.51231942297161  -11.92864250149928   -0.24616885182603
O          -6.16746562966633  -14.03917494058718    0.13574581036077
C          -7.34391908048266  -14.72768002361066    0.28826970987414
O          -7.37329348341759  -15.89383055036116    0.52621270887481
C         -10.46025989006079  -15.13483004068613    0.70952667657150
C         -10.02088333033564  -15.79498077512316    1.79169038974120
C         -10.72995567417432  -16.89573520974679    2.38039482040287
C         -12.06226795117730  -17.02273332143319    2.55692146875906
C         -12.63370401513169  -18.36383989177991    2.89535837014968
O         -12.02389378360709  -19.33283155337019    3.27114315221791
C         -14.07824845387232  -18.24192216048763    2.61440056655089
C         -14.38356758010393  -16.90787250109110    2.28386777238060
C         -13.17565630055209  -16.09453185950680    2.39540409561967
C         -13.16490928894746  -14.73892115978952    2.54771139504280
C         -12.02850234200529  -13.94299349833673    2.80001201564586
N         -11.17104226031663  -13.20825838221347    3.00692010057033
C         -14.33015389297073  -13.93691694914158    2.51915342591847
N         -15.23788645264430  -13.23697146998865    2.52212915645797
C         -15.67799553140503  -16.56449075320118    1.92942403614086
C         -16.65216756981237  -17.55540793185431    1.92997324145236
C         -16.34576294884565  -18.87392538069506    2.28239233589212
C         -15.04651602662112  -19.22588975467017    2.62329004474148
Br        -17.69362156263507  -20.19638073215901    2.28957543984669
Br        -18.41604666662289  -17.09386299467274    1.43866998100480
H           2.47190090755019    1.14477791312638   -2.02591099880484
H           1.20878842864893    0.06332587247914    2.66315834273246
H          -1.22312136443565   -2.99586245540840   -2.28386742625874
H          -3.73404820678401   -7.28776027086979    1.57495408710696
H          -4.65810421024906   -7.01061194259139   -1.34880143195822
H          -4.75104539587294   -9.39190298587019    1.53654848569403
H          -6.32567555181139   -9.95989827991683    0.99143443222382
H          -6.62511907153665   -8.62740996060511    3.00869908980381
H          -7.31929546303528   -7.71577523607798    1.66867053106803
H          -5.75814631624611   -7.25722340135866    2.32504814891662
H          -3.87571833745427   -8.92849782453252   -2.41682520757661
H          -7.57293516103656  -11.35244391534306   -3.23377790586047
H          -9.42529349706682   -8.64160949116595   -1.34442493642359
H          -8.00309511491557   -8.17758684758982   -0.40829617607340
H         -10.52222821933999   -9.58181959550622    0.62335429102898
H          -9.86202169841464   -8.02848673869676    1.09773479638002
H          -9.03311094089690   -9.52124131183283    1.56112746469088
H         -11.39590790356734  -15.42917883026960    0.25368370484252
H          -9.07835419040497  -15.53800494202363    2.25340316170985
H         -10.12777368444003  -17.74168187258245    2.69831109827508
H         -15.94252811181485  -15.56017437253296    1.64011361533066
H         -14.79768350475464  -20.24210100391404    2.88714273038225
