91
 SCF done       -194.999207996073          0.000399974818
C           1.02536369257726    1.04029372939417   -0.09971868226534
O           0.23178096274423    0.62556466593881   -0.90436429671009
C           1.69308147471565    2.36143255254488   -0.12929591773751
C           2.45575423062650    2.54480587836017    1.03678409853958
C           3.15329833216066    3.72939022503317    1.21877156972919
C           3.07994248701408    4.70430093553943    0.23134433487966
C           2.32014688226908    4.51061522404691   -0.92603127085415
C           1.61391375409320    3.32935132088515   -1.10925256542929
Br          2.24272946128929    5.85258829408478   -2.25194465881451
Br          4.03041540236600    6.31849278492520    0.47903348068650
C           2.34315364247242    1.35298669669982    1.87228664233223
C           3.00724097726035    1.14258859399989    3.04969386447177
C           3.87578136701729    2.08349514235701    3.64693001604031
N           4.58635948065510    2.80774069344236    4.18198109659448
C           2.93872989086564   -0.03306280855599    3.82964048033627
N           2.94151998508943   -0.95445320742844    4.51390550228654
C           1.46135173901446    0.41856185573026    1.18824805787105
C           0.99644946230103   -0.75543366284217    1.68849476326082
C           0.26139973428807   -1.73179722668496    0.96459014191584
S          -0.76084208844734   -2.90901674197436    1.80307400283760
C          -1.08473558486625   -3.56268313829633    0.20929340292917
N          -0.43149437405155   -2.92622660503070   -0.73059275289084
N           0.29133599811549   -1.93960940553545   -0.31903594397849
C          -1.97396626056332   -4.65235857819838   -0.01229528206196
C          -2.23749144615625   -5.08235886084505   -1.26414082811444
C          -3.13816247026340   -6.13135369648740   -1.65923739431351
C          -3.31730075398016   -6.35708042326469   -3.01854637690729
C          -4.18944341156359   -7.31995808113208   -3.51496816131977
C          -4.92195380275289   -8.11069674559571   -2.65742996465015
C          -4.75063939427311   -7.94246202655152   -1.25718343845574
C          -3.86178684013624   -6.96040600157336   -0.74950419784510
N          -3.69767136465759   -6.86078841580278    0.58155450233541
C          -4.35149472822750   -7.65272498667914    1.38627126043863
C          -5.27279389496498   -8.61924014293724    0.87517265598958
N          -5.44331432591407   -8.73086211991406   -0.41317880305054
C          -6.04286790354529   -9.52374048591133    1.77167426722784
C          -4.10652839063320   -7.51897464202180    2.84971050759956
C          -5.90991650409565   -9.09469315140899   -3.07443821489999
C          -5.98600901489639  -10.34369591016816   -2.43547550526219
C          -4.91410527485112  -10.86397710374314   -1.56567950622109
O          -3.76421833768826  -10.54599416855712   -1.51000179628333
S          -5.56747099278646  -12.29174774568663   -0.67893968108664
C          -7.01601325261454  -12.39526645089851   -1.72688199939526
O          -7.80153839834913  -13.29313392550735   -1.64015513531794
C          -7.05533667388025  -11.21850363592498   -2.62085121750764
C          -8.07109025329988  -10.97714765460401   -3.57233915704118
C          -7.97267385441443   -9.74053029759648   -4.23170550018027
C          -6.94997877469161   -8.82680606401805   -3.96049501576637
C          -7.25539016575872   -7.57912241370234   -4.70096504928987
O          -6.67292893110879   -6.54123956567110   -4.74550242163102
O          -8.42936640665917   -7.79467496703448   -5.37751371083278
C          -8.91878961721389   -9.05677015693991   -5.14745175343605
O          -9.94648823862977   -9.42388280154286   -5.63034896288914
C          -9.08872846966221  -11.96488150171586   -3.83763635317936
C          -9.59632921962943  -12.19774051848636   -5.06450841351288
C         -10.52312334380620  -13.24290870230980   -5.33266324302304
C         -10.85955001116732  -13.70242201866141   -6.56402503201787
C         -12.08631421343942  -14.53173523284113   -6.75125810409276
O         -12.72014056389851  -15.09395201653810   -5.89405330540727
C         -12.37402404701882  -14.45690326420176   -8.20010039151038
C         -11.34014457994147  -13.75834567461293   -8.85286621083553
C         -10.30922063619627  -13.41167322714387   -7.87627183586959
C          -9.01626519700271  -13.08371944402273   -8.17715476942820
C          -7.95990448865222  -12.99199378040355   -7.24315398549419
N          -7.04546601009840  -12.93741708361215   -6.55198571909548
C          -8.54784713115442  -12.88850535830150   -9.49665669041216
N          -8.12211723042578  -12.70776270900939  -10.54597953132148
C         -11.41918376645149  -13.52797797051194  -10.21624121743232
C         -12.52335376989266  -14.00978784485396  -10.90986491337404
C         -13.53663824455201  -14.71828704163451  -10.25744004152561
C         -13.46659133124051  -14.94307397299355   -8.88851425701600
Br        -15.01761062155727  -15.37368855742152  -11.22795180866973
Br        -12.63825445348339  -13.68815814248566  -12.76726010983121
H           3.74509340938640    3.91878350381002    2.09949217813182
H           1.02030396429010    3.16582121045549   -1.99535648579158
H           1.18168469095765   -1.00465967571421    2.72507746008449
H          -2.43703364978054   -5.11048521621036    0.84665678376251
H          -1.73782303851323   -4.57036399889276   -2.07689274889135
H          -2.76029530629036   -5.75473075595150   -3.72030271061039
H          -4.27754903779895   -7.45686707313236   -4.58061675370609
H          -5.36360114084117  -10.20057991198849    2.28869625597211
H          -6.74636437400755  -10.11120712867920    1.18873293418987
H          -6.58292362900774   -8.95054728431201    2.52297765202032
H          -5.02438651464124   -7.23993842447522    3.36544359075229
H          -3.35191162994018   -6.75840550753857    3.02704281665522
H          -3.76518300876429   -8.46688634350611    3.26228120866169
H          -9.34487372763212  -12.62653480665735   -3.02173870446186
H          -9.29456152983480  -11.58393164157975   -5.89797354232302
H         -11.05607658829975  -13.67813258967445   -4.49465240083451
H         -10.66009710972164  -12.97899295819101  -10.74992683268118
H         -14.24626168154991  -15.48337191282288   -8.37430425284358
