112
 SCF done       -219.161812028452          0.000438177784
C          -0.61343633527587   -0.28650074574519   -0.98637093353009
O          -1.51826912145368   -0.78806050021499   -0.36286027938548
C          -0.53645821412025    1.10076872786108   -1.48226433099911
C           0.78936670981273    1.40050818118011   -1.84299896456742
C           1.09724349882637    2.65879826819168   -2.33614308215050
C           0.07542296878112    3.59145311744251   -2.46443541964662
C          -1.23805083399299    3.28394989364077   -2.10008814439570
C          -1.54994372915651    2.02875763831169   -1.59593643737771
Br         -2.60541690587024    4.57097674363624   -2.28782344798345
Br          0.49223627651502    5.30367938351133   -3.14479046959626
C           1.62750151089487    0.22521640094940   -1.62002065857994
C           2.98515022289740    0.16888056189489   -1.77977976608019
C           3.78232324975686    1.26691079428859   -2.17100012994468
N           4.47991833323869    2.12355091738520   -2.47984759030452
C           3.77762400859050   -0.97627334359271   -1.54950772909055
N           4.47736361868687   -1.86955066813158   -1.37767957427710
C           0.74489086680464   -0.86173289387154   -1.23406736924138
C           1.05654749815699   -2.17524810360303   -1.08605985785512
C           0.07178032568014   -3.20020593132677   -1.03774110974006
S           0.33757728248738   -4.70726142889471   -0.19234175298100
C          -1.14158399773063   -3.25027626197246   -1.68709932442353
C          -1.89081713057551   -2.40740389729267   -2.64132941684806
O          -1.59576709186076   -1.34085418145744   -3.12891120322682
N          -3.03465370992439   -3.12599224810675   -2.92117581667590
C          -4.09803923187047   -2.62280327067119   -3.76505640103311
C          -5.09244153136062   -1.79842314197263   -2.95559605052854
C          -3.11193852096578   -4.35803717171329   -2.26168016210487
O          -4.03532138201629   -5.12035383355382   -2.34680548391231
C          -1.85083051296589   -4.44922206547462   -1.50232722358976
C          -1.20967980113046   -5.37450247134128   -0.69968022215382
C          -1.66116632362561   -6.65531324615509   -0.31001646751591
C          -0.97771354256865   -7.45312665161678    0.55327814362439
C          -1.43764142495490   -8.72385490226447    0.97307399649352
N          -0.80920155136810   -9.49121687725169    1.92383247383230
C           0.37613669970039   -9.14375319938534    2.66946925702079
C           0.07482282537841   -8.15546596263275    3.79349461203128
C          -1.51123862628231  -10.68848269560718    2.19073492577821
O          -1.16103448985305  -11.49689633939947    3.01870150363529
C          -2.63476233860491  -10.64214401679546    1.27616085098500
C          -2.56646661809479   -9.42892529684552    0.55429298783988
C          -3.69078421382614   -9.39479183026273   -0.35494037034042
O          -4.02992672334553   -8.59677679263424   -1.20132337780749
N          -4.39798284083260  -10.58542397358686   -0.08469427125176
C          -5.54835397367382  -10.91991085656683   -0.89180706595035
C          -6.81230834988824  -10.22413721736046   -0.39110584159976
C          -3.78168097425686  -11.33458173670780    0.88894636638005
C          -4.20134256851689  -12.57210361966598    1.44691096613419
C          -5.47178952741871  -13.04510097205772    1.50235799393577
C          -5.83698857195985  -14.27587886060588    2.10446069463222
S          -7.54474622127323  -14.62800024688250    2.31982085311806
C          -5.08678808962022  -15.33054711686786    2.59215516369604
C          -3.67438321430897  -15.75372848511934    2.66397072688798
O          -2.67278382945408  -15.19640304589266    2.29492752251369
N          -3.70608269939470  -17.01835237176781    3.24953661951823
C          -2.50658833347349  -17.78508863575690    3.51680661858089
C          -1.83951899822680  -17.33274558294895    4.81048413208198
C          -4.98059276165504  -17.46406349414436    3.55713894541499
O          -5.26029447980630  -18.53160339034746    4.04737601636712
C          -5.86655103489016  -16.36934562849371    3.13113956668932
C          -7.22870401483710  -16.17193447745252    3.07434264968138
C          -8.20896612312319  -17.10552057945548    3.47778549637574
C          -9.54392054541214  -16.99259374206796    3.27344293460704
C         -10.49184977178487  -17.98130996075972    3.64214973391179
C         -10.31890063989928  -19.31320558044549    3.86937852445958
C         -11.38913315530987  -20.04175694223778    4.61094328365585
O         -12.50522124853113  -19.64537874456560    4.84475475479012
C         -10.76673751784344  -21.31243662484364    5.03638556601465
C          -9.47755585585092  -21.40998348215763    4.48168312276896
C          -9.23830122635824  -20.25069886393861    3.62141727078812
C          -8.31027366359593  -20.21704083298512    2.61624027002660
C          -8.21024637845024  -19.19403945905524    1.65203493074333
N          -8.09435629536239  -18.40518088540230    0.82672627153458
C          -7.37900585386032  -21.25012220985030    2.37058639176328
N          -6.60886967309878  -22.06311191337114    2.12330717666501
C          -8.67753185707763  -22.49834703398659    4.78500292818120
C          -9.18627455112643  -23.48275976602968    5.62467193742579
C         -10.47664044081591  -23.38988015436197    6.15265263543338
C         -11.27725246350354  -22.29293054915886    5.86204162411787
Br        -11.14696880979179  -24.75136668025310    7.27790084639968
Br         -8.09485427591362  -24.96445574004172    6.05066172804140
H           2.09837278209558    2.93313681008387   -2.62681512041276
H          -2.55965552453076    1.77963969229366   -1.30987436649295
H           2.08851745371799   -2.49785277409176   -1.04859765198974
H          -4.59324564337369   -3.48660554829134   -4.21434213659730
H          -3.63702143645978   -2.01029520282964   -4.54355589677444
H          -5.55721013566863   -2.41609427698803   -2.19086143297888
H          -5.86643562939355   -1.40795463146287   -3.60992068537700
H          -4.58401627203415   -0.96571737188376   -2.47503645133510
H          -2.60708231534530   -6.97279424233984   -0.73331202471277
H          -0.03948040030393   -7.09730505241795    0.95950487323514
H           1.13207695385865   -8.74224367451772    1.98905759350149
H           0.74727704500809  -10.07971150286203    3.09622219131153
H          -0.33748907852624   -7.22852019737664    3.40099605691998
H           0.98730236720912   -7.92971216041039    4.33796193543317
H          -0.64353794592420   -8.58919934947518    4.48461938925802
H          -5.66315899844683  -12.00497243481243   -0.91698812289370
H          -5.33469013158694  -10.56293292301363   -1.90441892970464
H          -7.01212257010130  -10.45981211252404    0.65229042483507
H          -7.66400572176257  -10.53133736722755   -0.99152886339478
H          -6.69216312309388   -9.14785523105434   -0.48235569426969
H          -3.40459874979776  -13.13399893605429    1.91904884258874
H          -6.30137018679280  -12.45967110115417    1.13526326030324
H          -1.82692342535600  -17.64362349346409    2.67300607445643
H          -2.80541759308212  -18.83371869305167    3.58109916159646
H          -1.55348363948396  -16.28616281980705    4.73814174349886
H          -0.94813235328961  -17.92697408887321    4.98903241688107
H          -2.51802194346785  -17.45884908201548    5.65120349929590
H          -7.80292447968711  -17.97030591055008    3.98767050555961
H          -9.93252264301134  -16.07615467444646    2.84789297096635
H         -11.50380126893277  -17.63011793198229    3.82280858480547
H          -7.67403802443765  -22.59535752581177    4.40314318618514
H         -12.27194853144663  -22.20727739252612    6.27101939836611
