96
 SCF done       -196.469480268068          0.000921655464
C           1.32430006787807   -0.40670977647760   -0.21624224001912
O           0.81881248355508   -0.38941100390689    0.88250087257093
C           2.36537904819438    0.50359223748704   -0.72640665111499
C           2.78980407633485    0.08009636259426   -1.99908980160430
C           3.77553785603581    0.79180089112266   -2.66350141728041
C           4.31491298134133    1.91585565091015   -2.04808583274730
C           3.88221075976346    2.33127570443073   -0.78503169464275
C           2.89986757826899    1.61711100909967   -0.11152831459499
Br          4.62849845617525    3.86530613642665    0.02169418308595
Br          5.65924026493185    2.88492521717864   -2.95284030196704
C           2.03324451163803   -1.10858457326692   -2.38132657451093
C           2.10142220892457   -1.74992597476925   -3.58801131455843
C           2.98150681523845   -1.38204610717277   -4.62948760707841
N           3.68027016326264   -1.13197519143976   -5.50385979214803
C           1.29126666238057   -2.84453324978205   -3.96223761010721
N           0.64861656896407   -3.71893433776084   -4.33469732787402
C           1.13381358697104   -1.42480789104162   -1.28616999677100
C           0.38817567495813   -2.55667159805423   -1.14313275620761
C          -0.61894114558342   -2.76196374156347   -0.16618883267243
O          -0.92155384855118   -4.03100596580162    0.19605790597867
C          -1.93836296713934   -3.99774060244894    1.07331897613834
C          -2.34690665894921   -2.67187149335296    1.26765353549020
C          -1.49744203939309   -1.87541660459081    0.46450112384352
C          -1.63169901978427   -0.49463689990865    0.24576697794462
N          -1.80972579304272    0.61483301283248    0.02277403166686
C          -3.39920899503145   -2.25449177184290    2.09418105035161
N          -4.26886112831142   -1.95139001930965    2.77612016065046
C          -2.47185467188986   -5.15654636964023    1.68949797717990
C          -2.06233996235568   -6.41799207557249    1.39415048189227
C          -2.50829858980862   -7.64578025189609    1.94341287792575
N          -3.30403838912351   -7.88128992700361    3.04080490774344
C          -3.89156762816370   -6.93831437801776    3.96443331841649
C          -5.25413810542210   -6.44280263243766    3.48496227201237
C          -3.51260593669544   -9.25891877946366    3.24588766807630
O          -4.17271421296903   -9.70721520146179    4.16020954872173
C          -2.77771822561082   -9.90420768889810    2.18008772004051
C          -2.16709043620182   -8.89148599954440    1.41157375304130
C          -1.42578738304085   -9.52288419070567    0.33784136515088
O          -0.75283109895094   -9.07248157420899   -0.56105571783068
N          -1.64879206979986  -10.90327622702900    0.53640493022388
C          -1.03253318390133  -11.88873041985405   -0.31938688894916
C           0.21132466156138  -12.50034454716618    0.32034363924246
C          -2.44335997544830  -11.14460975941316    1.62992208945997
C          -2.82832574633330  -12.43273600424091    2.07440118619914
C          -3.60631854110346  -12.60835694008219    3.17677194536490
C          -4.00026174385898  -13.87154953770292    3.67444421411601
O          -3.63891946558395  -15.03196003191686    3.07929373299937
C          -4.14429240240704  -16.05311204141947    3.79752267535961
C          -4.86385077112286  -15.55558691228028    4.88752977394591
C          -4.77218473469905  -14.14484942738069    4.80917991154684
C          -5.34522205770588  -13.21780372859778    5.69308117479767
N          -5.82737760753058  -12.48600045983730    6.43038239803093
C          -5.51264474070555  -16.34116071931770    5.85025726583929
N          -6.02894193481694  -17.02189413848556    6.61403527232920
C          -3.89950399814610  -17.41254380226289    3.48878580615849
C          -3.16880828133242  -17.85399673795753    2.43540444688258
C          -2.91402509745925  -19.22409151564806    2.16283493432970
C          -2.88169783742397  -20.28835439734124    3.01016429827270
C          -2.97687665890997  -21.66042241320049    2.42581339678353
O          -2.87064116706092  -21.95534364315251    1.26073459309714
C          -3.27833686050695  -22.54547936292897    3.56883773300842
C          -3.22958894852407  -21.80176260445738    4.76269121732254
C          -2.83370920335093  -20.42773385826807    4.45399755618935
C          -2.28685713670102  -19.55887681636890    5.35926492078383
C          -1.72278516570648  -18.31013208522754    5.03039075994965
N          -1.23644399562923  -17.29168615319928    4.82194804412493
C          -2.14441480368922  -19.84691240379080    6.73523877321142
N          -2.00119791146788  -20.03388806046662    7.85737592325608
C          -3.52212452980226  -22.41511390771714    5.96907168057341
C          -3.84133854056776  -23.76850862447343    5.96681068928078
C          -3.86635454126022  -24.50520360971664    4.77867426202863
C          -3.58746183532936  -23.89032498669542    3.56477964901374
Br         -4.28703410042830  -26.34580079464982    4.80662180322192
Br         -4.24712368455338  -24.60683820650938    7.60958452185691
H           4.13793401999474    0.50057595495108   -3.63610827653457
H           2.55526002461559    1.92518680416119    0.86337807005093
H           0.55987404325704   -3.40588629423331   -1.79265709152241
H          -3.25428621998756   -4.94944918603660    2.40149077972786
H          -1.31789717578504   -6.54473635337372    0.61716402522527
H          -3.19498311909037   -6.11519204239757    4.13515317058330
H          -4.02576892637935   -7.48211702406016    4.90461287095402
H          -5.19678957088420   -6.01739713575773    2.48528168030857
H          -5.62997067031456   -5.68536429720753    4.16672231789006
H          -5.95723761073029   -7.27148388016946    3.46472725771286
H          -0.75093191182492  -11.36023329563698   -1.23443314732131
H          -1.76380717405604  -12.66196197313053   -0.57064553180072
H           0.94478782128975  -11.72359612865891    0.52128128551943
H           0.65288773974101  -13.22597167685609   -0.35686800066487
H          -0.03177363314567  -12.99708443140003    1.25704910161272
H          -2.48490751950751  -13.29490185476950    1.52071918832459
H          -3.95658061003663  -11.75562515878391    3.74483635919579
H          -4.36333664525747  -18.11491058838241    4.16885350795036
H          -2.80534557056648  -17.13519329626795    1.71396435092134
H          -2.77188378776261  -19.48491607894039    1.11770594370489
H          -3.52148172959354  -21.87523921418960    6.90230525173448
H          -3.61090069171069  -24.44846832080581    2.64173163266214
