111
 SCF done       -230.152044446568          0.000824537922
C           0.32588863048504   -2.76506939789290   -5.08537161313453
O           0.21663324764930   -3.92181490294570   -4.73452994454410
C           0.85540440875087   -2.28105757916350   -6.37467599133183
C           0.76975573851300   -0.87717092400253   -6.42271274156493
C           1.22760465855873   -0.20116130461468   -7.54159351767205
C           1.75894431242340   -0.93845888127897   -8.59405932542263
C           1.83109130118486   -2.33332091163486   -8.54016756821720
C           1.37593178420467   -3.01613506679733   -7.41987009574195
Br          2.55387427628870   -3.30833737409600   -9.98730124281166
Br          2.39193846132142   -0.01682866556875  -10.11673023831896
C           0.15447409101081   -0.39983710154411   -5.18665590836260
C          -0.27200069472144    0.87552729802605   -4.94366003699256
C          -0.08000235050237    1.94979969145860   -5.84050938851713
N           0.06172452586941    2.85311756594929   -6.53303666680227
C          -1.02380468962246    1.27603053266411   -3.81476530700020
N          -1.68019584724564    1.66612098422247   -2.95915804892911
C          -0.01408969502609   -1.55341274896567   -4.31710454975964
C          -0.28722454836044   -1.51578789552434   -2.98054081267947
C          -0.45123833385913   -2.58572980683767   -2.07585504222534
S          -0.57419433142760   -4.29990643817427   -2.41750236604607
C          -0.58816020627402   -2.39141719627952   -0.70773838920511
C          -0.54458494977703   -1.23186652027340    0.20249531118133
O          -0.35530304078808   -0.06680724765016   -0.03355312982724
N          -0.76190581301022   -1.77442547138316    1.46401484579700
C          -0.77557982027728   -0.97725406959823    2.67334059640195
C           0.62313089740846   -0.84571975253474    3.26489919867846
C          -0.90552874604049   -3.15357588348288    1.46235513475173
O          -1.08771012219569   -3.82270447530149    2.45204499454117
C          -0.79038997635944   -3.55291361184164    0.04473383976949
C          -0.82758815095740   -4.70439677479501   -0.73550660546294
C          -0.99839621525146   -6.06472971710494   -0.38205519893066
C          -1.14455541080153   -6.49886194190776    0.89871179343063
C          -1.28578386667950   -7.86940014864782    1.22411817164212
N          -1.35598774756342   -8.33942587263494    2.51120479736787
C          -1.25606772852869   -7.55567343003768    3.72022900853118
C           0.19031652543773   -7.18515482321130    4.03586361814300
C          -1.46278017310419   -9.74502440386701    2.55614129165897
O          -1.53610607335941  -10.38662310686177    3.57961662283991
C          -1.47141453291565  -10.13815754625022    1.16003615102296
C          -1.37002376529143   -8.97412010967626    0.37062760837654
C          -1.37787870295069   -9.38883441959021   -1.01565599628879
O          -1.29187928250979   -8.76040340964831   -2.05067553904155
N          -1.49317047618500  -10.79346993189072   -0.96763883780681
C          -1.51542380531693  -11.54734031397287   -2.19887503180382
C          -2.93998755104293  -11.83299949952476   -2.66911815498450
C          -1.54008552080296  -11.25310043199234    0.32561674679908
C          -1.56562645205991  -12.58281264760511    0.82236876473186
C          -1.80517794870687  -13.73665772953014    0.15790265351014
C          -1.76952977338628  -15.03286732165780    0.77208722833304
C          -0.85701775239763  -15.45990608555398    1.76665917774231
C           0.38272257675435  -14.71991091312271    2.09290019305397
O           0.81218639706820  -13.72481400440137    1.59232714466560
S           1.29995092815161  -15.62546735552902    3.34168105886294
C           0.15098819621251  -16.99463240736733    3.33710523354903
O           0.33720645592339  -17.98621867910292    3.97620098573537
C          -0.96288150666053  -16.69810103730492    2.40359351480199
C          -1.96559423629833  -17.63474823351467    2.08313319965621
C          -2.75850030357061  -17.26850903567551    0.98720797991992
C          -2.67121722974139  -16.03113459195569    0.36765688643191
C          -3.69334209386200  -16.00085134037662   -0.70080878865258
O          -3.97220742875192  -15.13918689280762   -1.47539526622956
O          -4.33290210274829  -17.22184076849958   -0.68327237717123
C          -3.83333577597940  -18.02445378160276    0.30192700522672
O          -4.23663699938889  -19.13084775122160    0.50455680408480
C          -2.24677978038181  -18.88557649750811    2.74948620477165
C          -2.25038062601504  -19.08280217622366    4.07749887449658
C          -2.62024206425321  -20.32973632648012    4.68177627987284
C          -3.57777147908167  -21.20447254294884    4.30351046447679
C          -3.55636045396858  -22.59065899130960    4.86927064179365
O          -2.91595190655219  -22.97162740899436    5.81631209606690
C          -4.43877486906344  -23.37633733595840    3.98406876619000
C          -5.06572704624167  -22.51741682058929    3.06190658194107
C          -4.67070359669976  -21.13895741167671    3.34082165299966
C          -5.37194416431177  -20.03713036497216    2.94615812709135
C          -5.07971687033936  -18.70916040308111    3.31832307299444
N          -4.90705518172107  -17.60250584587040    3.56852863020874
C          -6.54106611505257  -20.09828334323803    2.15180764139375
N          -7.50793861216964  -20.09611407454030    1.53630550408224
C          -5.90498013835605  -23.04061171962030    2.09205314049823
C          -6.12160403772320  -24.41312717322516    2.07182333891367
C          -5.51310406247269  -25.25751899500897    3.00608263653347
C          -4.65843597920181  -24.73922563045489    3.96976725275592
Br         -5.83647081319149  -27.11748886780784    2.96178148754432
Br         -7.25645164178216  -25.13389227822422    0.74617878012293
H           1.18999008180890    0.87345132392013   -7.61818021223807
H           1.42721863848357   -4.09250475391343   -7.36507965695606
H          -0.36421339957377   -0.54558394895110   -2.50013851792008
H          -1.44532806469921   -1.46963435771326    3.38214437132732
H          -1.17068607326470    0.00609892488391    2.40900227941249
H           1.02226374588746   -1.82671685431487    3.51273058797757
H           0.58327929226417   -0.24616546862382    4.16952487105611
H           1.28782179406941   -0.36101064681743    2.55361544180131
H          -0.99741998934960   -6.77460042526076   -1.19965584979849
H          -1.14280785244189   -5.78387423569877    1.70855601007427
H          -1.65883115204633   -8.18230914796096    4.52060847469570
H          -1.86938971090353   -6.65641678215286    3.62700717511406
H           0.79360326592128   -8.08390770982711    4.13920092867519
H           0.22781488068620   -6.63008573773621    4.96850590014983
H           0.61256751715099   -6.56704057089637    3.24726523135657
H          -0.93865520642017  -12.46546705696979   -2.06948584366631
H          -1.01570896073169  -10.91995057253165   -2.94362516285606
H          -3.50487453334772  -12.39919646892711   -1.93274064792369
H          -2.91245527845475  -12.40255994169075   -3.59359458816432
H          -3.45807493555125  -10.89550315654444   -2.85535810265189
H          -1.39548577094122  -12.61765377618312    1.89109534012684
H          -2.15406645071277  -13.73387479279722   -0.86270341264598
H          -2.57785770749788  -19.68232437985665    2.09522413123229
H          -1.91723160838508  -18.30849070150608    4.75330383134220
H          -2.02170168840987  -20.63706862569666    5.53482956844308
H          -6.37739050299865  -22.41699279738430    1.35026772937981
H          -4.17663653287459  -25.38333951771694    4.68890510813361
