107
 SCF done       -220.923158303757          0.000571938350
C          -5.75558607318119   -4.12750610544322   -1.92934152759048
O          -5.22690702157717   -5.21978806650363   -1.97388561821881
C          -6.94194479729297   -3.67980834430433   -2.68161803191465
C          -7.17997757310505   -2.31941937868249   -2.41265666954962
C          -8.27526905415835   -1.68575870376308   -2.97320428691282
C          -9.11442557621454   -2.42425139102091   -3.80031010014303
C          -8.86584959057570   -3.77279490231093   -4.06688374073852
C          -7.76995763801956   -4.41375011318526   -3.50334434184978
Br        -10.01968154615138   -4.74579443124214   -5.19830366549606
Br        -10.61244756771885   -1.56996081615442   -4.56789520841886
C          -6.13801995668038   -1.82637978567133   -1.51937628373164
C          -5.89452834351319   -0.51528088222511   -1.21439701560433
C          -6.65552516495881    0.57422996107479   -1.69287906305122
N          -7.20638010992689    1.51174549738245   -2.05777489767250
C          -4.79041230814329   -0.04745018579342   -0.47328321082976
N          -3.91509844434314    0.44720897799232    0.08203985135988
C          -5.34487855601609   -2.96977015832128   -1.11529258515769
C          -4.46245555198639   -3.00362385873642   -0.07335974337337
C          -3.69066824676663   -4.07381560392298    0.41101921578150
S          -3.47777773823838   -5.67938226164828   -0.29041656192824
C          -2.93323951416870   -3.98984403169343    1.57084225193040
C          -2.66570331900846   -2.97623767444668    2.60877506900036
O          -3.10702865470227   -1.85435418552569    2.71295043518971
N          -1.78507349086858   -3.58192991191564    3.48275012908430
C          -1.21180417123998   -2.92282415935034    4.64082088754168
C          -2.00556867739061   -3.20561738195531    5.90933886177759
C          -1.47737454316726   -4.90190095419678    3.13699298560216
O          -0.75643408682831   -5.63190267156371    3.76836773324116
C          -2.21542155853425   -5.14265917031781    1.89000104626875
C          -2.37644029729583   -6.17864185019640    0.98062090630777
C          -1.84925479292843   -7.47705014242434    1.12984469751085
C          -2.06515168479620   -8.53227367066664    0.30114604851667
C          -1.75584439448287   -9.87097863027627    0.70319480153713
C          -1.97596860485210  -10.37156468736941    1.98772954435739
C          -1.51372716814751  -11.72786524963227    2.05384118078581
C          -1.05666540020375  -12.08001836796442    0.82608081443152
C          -1.17477523156568  -10.95091757079926   -0.06844369464095
C          -0.71622756686156  -10.93405956374564   -1.36701597132718
C          -0.61295457558179   -9.75305427405742   -2.24682632642072
C          -0.11677168611769  -10.14520553656464   -3.42555259629241
C           0.10876864975734  -11.59657933236288   -3.36802223676431
C          -0.23993542389477  -12.03921214475435   -2.11618514954466
N           0.59368505308905  -12.30173546275884   -4.40274995364330
N          -2.67019218280585   -9.73472347985791    2.99614225424678
C          -3.63354867569499   -8.83637228536021    2.73747813122416
C          -4.08028753472047   -7.90627387001887    3.62581764294663
C          -4.96644791893481   -6.84148656534633    3.33075172138959
C          -5.17151887133368   -5.80590477844611    4.29767058183071
C          -4.68148208962433   -5.86355571421225    5.69391183644848
O          -3.97750005389910   -6.68299762588174    6.21212830727322
S          -5.31062632863831   -4.46474436950110    6.62201602304344
C          -6.18315410671335   -3.80060146711530    5.21431025908359
O          -6.96182488425369   -2.90031555844357    5.28417650103611
C          -5.87690713718662   -4.63900560055589    4.03090655723289
C          -6.42683696153365   -4.36015741732886    2.76765576290669
C          -6.35926768148980   -5.42857950643502    1.87660894568055
C          -5.68629339906047   -6.62753030988153    2.11750352115325
C          -5.95932121591873   -7.47510570896295    0.93777189025630
O          -5.64262098546990   -8.59583937402034    0.66393696306611
O          -6.75819628833662   -6.75515134068172    0.06857915531457
C          -6.98975585567478   -5.50912599305352    0.54670805609499
O          -7.60189620200233   -4.67262004006153   -0.05631626040162
C          -7.01762120796180   -3.09430504770129    2.39908645522329
C          -6.39814521461289   -1.91883049041761    2.62086738235714
C          -6.96923361642571   -0.68293229821942    2.21684491391796
C          -6.41764764295563    0.55568989281103    2.24132729191715
C          -7.12333441970835    1.63033782817913    1.47799341782918
O          -8.26319084090426    1.59438212065384    1.08161085458146
C          -6.10750769923647    2.67184701440340    1.25452379346136
C          -4.92206147258020    2.32376806933378    1.92873286833436
C          -5.13006173610244    1.07874168142960    2.67258717967382
C          -4.30626894683477    0.62419728611113    3.66013166208522
C          -4.53638020955336   -0.44658249940814    4.55038203435337
N          -4.62641032952476   -1.25504398853108    5.36034266597242
C          -3.07061395047722    1.22544266813701    3.99548512736170
N          -2.05556946924282    1.64690776934000    4.32350090154942
C          -3.80255875737688    3.12861793360387    1.79837484770491
C          -3.88938696837938    4.26327630808152    1.00208348439012
C          -5.07322709889638    4.60351002644043    0.34281545000254
C          -6.19766976086709    3.80027451927127    0.46484011214941
Br         -5.15502277494451    6.15151261177788   -0.73247296715469
Br         -2.35932907589109    5.35045305672096    0.81009137146563
H          -8.50025638403539   -0.64911485129545   -2.77770551349851
H          -7.57630745225256   -5.45796589600680   -3.69286762753041
H          -4.33992046902215   -2.10230000765929    0.51802295562744
H          -1.19718397776456   -1.85061451818466    4.43125615055678
H          -0.18882957235421   -3.29363436261648    4.74460206354731
H          -3.00395916679913   -2.78064534015152    5.83491737739244
H          -1.50322674039076   -2.75017513512288    6.75755579849535
H          -2.07543178788271   -4.27740716654720    6.08224851793922
H          -1.27400591880103   -7.61927149978028    2.03629790541581
H          -2.53938178941334   -8.36959507803383   -0.65841429860274
H          -1.56603079455254  -12.34653843779605    2.93017277309436
H          -0.63756446602049  -13.02780947880725    0.55078318253300
H          -0.85374275822452   -8.75275326378902   -1.94817188153714
H           0.09895835310476   -9.54087430453579   -4.28671726177852
H          -0.19638748484488  -13.05389941095875   -1.77485299559368
H           0.75735255467860  -11.85864100195224   -5.28912980218545
H           0.69684577147598  -13.29877139172958   -4.33421025745690
H          -2.37695018153120   -9.88912453542697    3.95427093808616
H          -4.02279679754572   -8.88728550801120    1.73481051567303
H          -3.64901225621868   -7.90697068333023    4.61493026624904
H          -7.95139723545350   -3.13186713702047    1.85361560541164
H          -5.41822331131708   -1.90985237112146    3.07062346223211
H          -7.95890424993722   -0.73118948122582    1.77102147041686
H          -2.86523183896171    2.88606001233969    2.27113206220009
H          -7.11448048312848    4.03747456869539   -0.05218608207603
