74
 SCF done       -158.919328225719          0.000786859187
C          -0.45617846414318    0.91558964543429   -3.26666746202626
O          -0.90573540715696   -0.06112437718472   -3.82827171965410
C           0.30614155722386    2.00855815205244   -3.89882419321102
C           0.63378884885653    2.97681156761164   -2.93325806064564
C           1.35811571306853    4.09676062477135   -3.30978569649005
C           1.73900079602897    4.22896758241584   -4.64027681339798
C           1.40535259453475    3.26096304757254   -5.59187306986435
C           0.68081665398431    2.13630166638032   -5.22062789671363
Br          1.93600579083782    3.46929796256856   -7.39226065843796
Br          2.72820876936013    5.75501260210737   -5.15212962307717
C           0.09444626432236    2.56036784806662   -1.64063226695838
C           0.14867067231795    3.29467280292999   -0.48907562781712
C           0.76967009091443    4.56072951122808   -0.39174757176407
N           1.25676948025794    5.58952165778250   -0.25166692804694
C          -0.41453037791205    2.93241948601231    0.75573355065069
N          -0.84657867554506    2.73326743604682    1.79968593966994
C          -0.53897833303556    1.26160709999050   -1.83200805279521
C          -1.06156069400134    0.47763530840552   -0.84717251097627
C          -1.70439274568326   -0.77714817224678   -0.94000097483864
S          -2.12549719440561   -1.70326461493067   -2.37527236068574
C          -2.82631548369999   -2.85720053801106   -1.26902751766911
N          -2.69710682252832   -2.50272057003282   -0.00376346412355
N          -2.09544108034302   -1.37830571468365    0.16467934556029
C          -3.47624698575599   -4.03922684742065   -1.70549263241754
C          -4.02192941270250   -4.92330003188698   -0.83319418004551
C          -4.71868173261332   -6.09683897180313   -1.19963244391015
S          -5.38602180802140   -7.13850101885478    0.02907421895951
C          -6.09283220444304   -8.23481760416670   -1.12143395831964
C          -5.79020149901936   -7.82138689112101   -2.42263836190675
C          -5.02402790366496   -6.62260525630124   -2.44614584348314
S          -4.64342393617957   -6.11430449895364   -4.05501766835477
C          -5.48089116280699   -7.52260449579957   -4.69149734809739
C          -5.53695268895511   -7.73184204001423   -6.07383336053441
N          -5.58629717912706   -7.90244939299013   -7.20698659019920
C          -6.02477499052581   -8.32019178409026   -3.72711071802065
C          -6.85482237275130   -9.32890937276182   -0.63703422107337
C          -7.71144790779665  -10.07570890881725   -1.37023620116728
C          -8.48289249538002  -11.17850627101042   -0.87441016367852
C          -9.53775741652388  -11.71382286210397   -1.63640870725848
N         -10.27269022531219  -12.72071808421519   -1.23334918445256
C          -9.95884744590491  -13.28455283986246   -0.06631407277144
N          -8.98518718047415  -12.85648387623765    0.74450941205242
C          -8.27721314895335  -11.82255842490070    0.35777673315193
C         -10.78124911641331  -14.39485693947965    0.35425410248533
C         -10.48550590746741  -15.34999305998530    1.25979010308963
C         -11.58010070677210  -16.18438622950785    1.84656498756392
O         -12.70278110551482  -16.30893602911549    1.42832372658720
C         -10.99383267853698  -16.76184750403884    3.07489174859040
C          -9.62713445187611  -16.43047552045684    3.15027775751033
C          -9.25049385719745  -15.68597183033029    1.95221530675168
C          -7.98324349478319  -15.55231976392916    1.46626584238413
C          -7.67369503053875  -15.06627225271184    0.17624482349985
N          -7.34561973294033  -14.74693478855428   -0.87544776175711
C          -6.82888201315037  -15.97298546594958    2.16265135457527
N          -5.86417098630958  -16.28776042890478    2.69729068829389
C          -8.87792685801614  -16.84260700571277    4.24017101143990
C          -9.50249334158036  -17.58719046388102    5.23362671149491
C         -10.85622311916028  -17.92490265571541    5.14410421835367
C         -11.61330844337560  -17.50802713201536    4.05723647668030
Br        -11.67297453707229  -18.94891144912226    6.50443700970303
Br         -8.48782261467631  -18.14337810450661    6.72611681701925
H           1.63705972334501    4.86436710630307   -2.60659479473514
H           0.41653773823503    1.38045364399659   -5.94390714694547
H          -0.99642284133699    0.81645595936438    0.17971399685907
H          -3.52652356813395   -4.19493428352787   -2.77306412713817
H          -3.93230518932908   -4.71658144207664    0.22404996431162
H          -6.54296481620035   -9.23146028984668   -3.96126176309375
H          -6.75217818025240   -9.51905463306188    0.42285068526628
H          -7.88570745245032   -9.82504848400956   -2.40664805664244
H          -9.79791582022352  -11.29232773324397   -2.59993803724369
H          -7.50035005496578  -11.50993481578239    1.04331085236300
H         -11.77537963666637  -14.41539675732024   -0.07694347795608
H          -7.83362164399779  -16.59469800579864    4.34231720192161
H         -12.65954251984240  -17.76028418081851    3.98029870416101
