90
 SCF done       -189.865382916034          0.000721341861
C           3.54339051955209   -3.59107669844436   -1.30342757044993
O           3.07813388389325   -4.64997236049663   -0.96918308908249
C           4.94305958421016   -3.14814164797305   -1.11379543966534
C           5.14221962016334   -1.89646097791987   -1.72164085183526
C           6.39459467354815   -1.30322616136639   -1.67349953051160
C           7.42198808221144   -1.96790241440094   -1.01475244554177
C           7.21277830095817   -3.21183675488861   -0.41177501350700
C           5.96241136499830   -3.81339236416386   -0.46406771924542
Br          8.62810396691911   -4.09076506089631    0.47639914207961
Br          9.12858108789186   -1.16016972099061   -0.94779354897041
C           3.88697352311690   -1.45172003847795   -2.31873523185008
C           3.67513537555280   -0.24098591367425   -2.91871443721874
C           4.67379556744802    0.74495432495565   -3.08413089503100
N           5.44328416775152    1.57888275446806   -3.25179915236165
C           2.44057664604816    0.20738246248797   -3.43896684006620
N           1.47163561775946    0.64587969680097   -3.86971001715884
C           2.89728678205020   -2.49396708771703   -2.08780887873835
C           1.65021431055027   -2.54503898504242   -2.62184108590800
C           0.64118340563929   -3.48888591509863   -2.28770075992652
S          -0.65896154716395   -3.86512005050456   -3.42180710412101
C          -1.26904034232154   -4.91980152426387   -2.16263300015237
N          -0.53184910339625   -4.88080062230851   -1.07730520090220
N           0.49870616105763   -4.10988511885061   -1.15017954015047
C          -2.42415215092432   -5.72502476619466   -2.33260679647471
C          -2.87133203022050   -6.54479570571190   -1.34675646280210
C          -4.00203423738259   -7.38215167735272   -1.50927763654592
N          -4.49066924944805   -8.21174917270381   -0.53153660978088
C          -4.01828939711331   -8.31127211812931    0.82923791508883
C          -4.50613231425588   -7.14269967695302    1.68149357206349
C          -5.60825471131010   -8.95022180633228   -0.97384899675555
O          -6.20494411504302   -9.75199568477431   -0.28998014882023
C          -5.79128244380246   -8.51647546900056   -2.34379689126125
C          -4.79994479486720   -7.56088705906427   -2.64389902656231
C          -5.00221879803132   -7.14256797585775   -4.01458433225122
O          -4.41585704864345   -6.34061989016054   -4.71223910923428
N          -6.11702442173048   -7.88380545869201   -4.45482955406249
C          -6.58885822711415   -7.72334677860365   -5.80997897507171
C          -6.09424036760462   -8.84206138126311   -6.72389008152207
C          -6.59630321796931   -8.71444807741969   -3.46779191589965
C          -7.68455736397922   -9.61539265445620   -3.46920166927677
C          -8.53939860384731   -9.95770819204359   -4.47015350749211
C          -9.59441116832988  -10.87918183458626   -4.29725356441806
S          -9.92389279817728  -11.66430226936430   -2.78717777138863
C         -11.28432549871786  -12.51820912209098   -3.45628491668007
C         -11.43857742834886  -12.21404287883683   -4.80996876154903
C         -10.50730422033867  -11.28298582876947   -5.27468308310283
S         -10.39811418322268  -10.62653275904072   -6.89817191503385
C         -11.59665431440216  -11.42964029247622   -7.92119413931490
O         -11.60065340677158  -11.12908097735253   -9.08090008382538
C         -12.60844858949583  -12.43834361751092   -7.41145369145399
O         -13.39042716962185  -12.91916984896569   -8.18030259633266
S         -12.75131748312665  -12.93772890835945   -5.71589054904423
C         -12.03641769951498  -13.46781179662345   -2.73002127452083
C         -12.17431439826470  -13.58734357403460   -1.38177665365076
C         -12.58993589482798  -14.89104711233910   -0.79152851517295
O         -13.05468524108287  -15.83856550489276   -1.37532251229143
C         -12.24486421473846  -14.77989500363145    0.64336467179645
C         -11.79448806909017  -13.47527721874438    0.92223707033141
C         -11.89457718038633  -12.67292068596794   -0.29410097478356
C         -12.00036123604998  -11.30862503719534   -0.33808206080257
C         -12.39336577222430  -10.60550063398918   -1.49648696505850
N         -12.75354504145593  -10.01478761799488   -2.41218757159540
C         -11.83147939359672  -10.47264100623003    0.78564698702210
N         -11.69209072868314   -9.75711752887332    1.67105205143496
C         -11.38095958289185  -13.14397831472976    2.20059135412215
C         -11.43004265164438  -14.12226937948826    3.18755060765490
C         -11.89355433898485  -15.41084547816252    2.90803802625904
C         -12.30457739511739  -15.74805251582918    1.62429682746126
Br        -11.96190276109126  -16.71606409777325    4.27144581003916
Br        -10.85279996782779  -13.68101462805129    4.93056960749895
H           6.59626647563882   -0.34866759889896   -2.13168553912783
H           5.78671026359991   -4.77480126257492   -0.00685298555535
H           1.36361660596003   -1.82547642332703   -3.37765077933179
H          -2.93337449716585   -5.67014967004539   -3.28501831068440
H          -2.33507913992249   -6.56319733700494   -0.40931588008492
H          -2.92682351794391   -8.36796778795221    0.83449711252018
H          -4.42394344527473   -9.24772238051110    1.22187445986236
H          -4.13998744266643   -6.19570680268348    1.29146126761503
H          -4.15201582108244   -7.26058473908872    2.70143575430757
H          -5.59310107525217   -7.11821318526826    1.69247089761223
H          -6.17864277558068   -6.77002196595128   -6.15666919789966
H          -7.67890162928363   -7.65154413380453   -5.81080005303699
H          -5.00974782176942   -8.80928951864159   -6.79124022687516
H          -6.50712809418312   -8.71152583429391   -7.72015467021872
H          -6.38485069945573   -9.82031861103745   -6.34766772603634
H          -7.82507196641016  -10.09199128003509   -2.50478828906577
H          -8.46053117876376   -9.54265029745616   -5.46255928946688
H         -12.50486386234090  -14.24976773400411   -3.32158872614132
H         -11.01286597054508  -12.16041915888131    2.44540620326967
H         -12.66148473480926  -16.74100508282509    1.39889900153498
