98
 SCF done       -204.875956346205          0.000993396888
C          -0.49974418948542   -1.45281031369331   -3.19854356288112
O          -0.39081555015601   -0.32639796685417   -2.78443618503645
C          -1.23035648475644   -1.92249269936115   -4.39390940031285
C          -1.04731439631668   -3.31071109656040   -4.54884214668437
C          -1.68202185478000   -3.97680771159775   -5.58394260434753
C          -2.48095196467863   -3.24526174806610   -6.45522904789111
C          -2.64193575701107   -1.86451264732750   -6.30614441353336
C          -2.01453017450515   -1.19323717664128   -5.26508927033854
Br         -3.72605317121039   -0.89618963771762   -7.51141387648460
Br         -3.36184727453177   -4.15233508401991   -7.85731811263230
C          -0.12980006140035   -3.78822739387457   -3.51659312955876
C           0.60877937406563   -4.93309920957402   -3.57309659561487
C           0.43921071490654   -5.91952729447557   -4.56951394661235
N           0.32278813494189   -6.74571382097382   -5.35637684828501
C           1.71394214166646   -5.20527399470103   -2.73401387332861
N           2.69132573905411   -5.43581245133149   -2.17969272127369
C           0.02694297323215   -2.70063769733002   -2.56483408636186
C           0.37318456385356   -2.68944119620051   -1.25777098661721
C           0.54340361559674   -3.81239852151219   -0.39923400531415
O           0.97100230916442   -3.58674613469083    0.87646689269788
C           0.98196739074683   -4.79969750576187    1.46001964375283
C           0.53288292969295   -5.74619265406065    0.48693676350362
N           0.27125466999113   -5.05883159527289   -0.66019453318305
C           0.42997021133264   -7.10134489221028    0.76344148114919
C           0.79349972352228   -7.45196810817992    2.05240701424951
C           1.23215639669103   -6.48434828291154    3.01044987409004
C           1.34460023419025   -5.13326510455630    2.74994293093152
O           1.49895118261375   -7.14059716545003    4.15138450523453
C           1.23120454077603   -8.44765004856203    3.87788171567223
N           0.81960188123560   -8.67332983593692    2.66451214131211
C           1.41333238433434   -9.38888002971398    4.93582950902241
N           1.22953696031603  -10.73800361633649    4.82651197324866
C           0.90181105728570  -11.47403466360678    3.62899492452060
C           2.13128286581188  -11.69491046118668    2.75361051733028
C           1.46257892096877  -11.39212594977406    6.06054731732833
O           1.35590010504830  -12.58694867231919    6.21410931426211
C           1.80940260784952  -10.31688669321258    6.96745238311992
C           1.76856603112241   -9.09765962757120    6.24483902672804
C           2.08139535750868   -8.02582051579298    7.16642457189576
O           2.18032812391705   -6.82866708694622    7.03066630176756
N           2.26815907404692   -8.68134185530636    8.41037507781899
C           2.71846655001659   -7.91066287614427    9.54546149004976
C           4.16378680469488   -8.22464038757485    9.91991388556259
C           2.11075731369767  -10.04357351511361    8.29772911113588
C           2.19417831022037  -11.04948616822945    9.30322233962647
C           2.18308904799389  -10.90518125757988   10.64665823373119
C           2.27592303624017  -12.02564851752202   11.52540676379209
O           2.14388931054922  -11.80034666136394   12.87287476736017
C           2.30109442116841  -13.01114409047519   13.44201392360531
C           2.53392741458124  -13.95075332438227   12.38826402557993
N           2.49957502437176  -13.26392702186131   11.20875061492050
C           2.75980606593314  -15.29324448565559   12.63772509063450
C           2.73671474525012  -15.64148555400688   13.98000177532847
C           2.48232860660377  -14.68694648046055   15.01199865535647
C           2.26032787221688  -13.34321392025872   14.78061259542029
O           2.52153264859669  -15.34290463565758   16.18755219049354
C           2.81963613635922  -16.63256334959697   15.85974543510776
N           2.94574340168699  -16.84626008674849   14.58196445610168
C           2.89091977578707  -17.60085420863063   16.90287878623283
C           3.36212726712491  -18.86457466183800   16.81000092932323
C           3.00725382429106  -19.86776443623602   17.86005463657328
O           2.55714319010480  -19.64338651436538   18.95542328865984
C           3.27260680315182  -21.17778999796488   17.23029768247767
C           3.86117565698088  -20.98717040889515   15.96469966857673
C           4.07194970467054  -19.55813091329989   15.74695492360053
C           4.95986226258720  -19.01007840073138   14.86867901117028
C           5.37379664374607  -17.65884702122248   14.89715446708986
N           5.83791257548111  -16.61070534641684   14.93592265175569
C           5.67032655994845  -19.76071291316503   13.90600176687638
N           6.26041765662182  -20.33258905274045   13.10640662869985
C           4.16948045174498  -22.08408076928239   15.17711832193946
C           3.89591330975996  -23.35492933463514   15.66921563838091
C           3.32551773037018  -23.53622218635748   16.93286763733843
C           3.00644677930884  -22.43974862742999   17.72278431591739
Br          2.97442529816734  -25.27520554598732   17.57936395139901
Br          4.30767047189865  -24.85174163080987   14.59459671349287
H          -1.58142738571267   -5.04104347611455   -5.72461325747752
H          -2.13645557944833   -0.12872542277688   -5.13769374870273
H           0.44841529602087   -1.72274324511548   -0.77391022031435
H           0.10193819130712   -7.81992638045209    0.03401527719293
H           1.68131083308921   -4.41947286793634    3.48078435679446
H           0.14218964179847  -10.92224393560352    3.07317312951095
H           0.50385644436304  -12.43547521262886    3.96412553305794
H           2.52217489555722  -10.74233691426906    2.40646890825208
H           1.85912520087829  -12.29346813828510    1.88963308476665
H           2.90349748821180  -12.21804414196608    3.31234487810456
H           2.04517401856889   -8.05883247197295   10.39341727075457
H           2.64150899322573   -6.86512951315899    9.23005047404797
H           4.28402057099540   -9.27023844579740   10.19281980848910
H           4.46576048910250   -7.60609376264806   10.76051636198253
H           4.81880394939179   -8.00950231902219    9.07927708023617
H           2.22751432280294  -12.05808291487110    8.91048351513153
H           2.08516613556987   -9.95458849657458   11.14548653427771
H           2.94957439083095  -16.00471956716735   11.85443058239124
H           2.08175992056751  -12.62895663462129   15.56522780672940
H           2.44740310441656  -17.30439351528496   17.84617084284653
H           4.60533782194998  -21.97849727080443   14.19662399522113
H           2.56283724797833  -22.56864288908967   18.69792688011260
