87
 SCF done       -174.608330304155          0.000394005715
C           1.39548062629024   -1.90215371841971   -3.42241325713264
O           0.93173772360336   -2.97209487591649   -3.75449772039178
C           2.61976766735729   -1.27905599724755   -3.95984679453859
C           2.82158938670351   -0.02874461548831   -3.34909315709023
C           3.92665319515868    0.73050368683095   -3.70006857947333
C           4.80464721201334    0.22951033195466   -4.65448857990976
C           4.59055475117362   -1.01249737005005   -5.25888789072208
C           3.48679129152661   -1.77890959531659   -4.90965357257454
Br          5.79911245741160   -1.66478494101172   -6.55504612725029
Br          6.31293468889240    1.26370384303946   -5.12905367535360
C           1.73560412739741    0.21903206971629   -2.40322923207846
C           1.55787966619997    1.37132152909975   -1.68965468304423
C           2.43357684338686    2.47904103504709   -1.75303132127976
N           3.10745279010037    3.40709057385035   -1.76287823344649
C           0.48426992482614    1.65016098140090   -0.81352865332893
N          -0.35118443707018    1.97259878194792   -0.09631362595200
C           0.87801141429092   -0.95948024187547   -2.40766381567321
C          -0.17959586486081   -1.17802872930771   -1.57658093074710
C          -1.05830847230189   -2.28310850261971   -1.50663524635335
S          -1.13223404213628   -3.71219707656530   -2.52650318336163
C          -2.48081946691622   -4.19691345900100   -1.53238862365957
N          -2.75735385887013   -3.32529580393582   -0.57821389594661
N          -1.98961874176455   -2.29436485959975   -0.57244673012231
C          -3.19903811200188   -5.40176607257399   -1.74281071656127
C          -4.24057945650521   -5.75907537723974   -0.94815860366785
C          -4.98801645984220   -6.94546346272359   -1.14776457350314
N          -6.05396909598123   -7.31804245818006   -0.36302658833698
C          -6.61208540421051   -6.57421395316855    0.74145983736786
C          -7.49140804057468   -5.42177606183374    0.26344677765433
C          -6.62192474727271   -8.52971498923450   -0.78596034884379
O          -7.57562132884467   -9.05193149466299   -0.24320208158308
C          -5.81615408361211   -8.92715725502220   -1.92174097577847
C          -4.82327867674369   -7.93571773466521   -2.11606130487067
C          -4.01813646674157   -8.32910323039275   -3.25212330908175
O          -3.06700276457612   -7.80737794316529   -3.79731920591147
N          -4.58784661646632   -9.54228088930005   -3.67770520275502
C          -4.01894473436851  -10.28642445331364   -4.77583073734476
C          -3.15831488274827  -11.44950856763346   -4.28873901763320
C          -5.65543507230660   -9.91265639413899   -2.89523560124976
C          -6.42297478727948  -11.08750959205206   -3.11492618595500
C          -7.45621643768741  -11.43331486292451   -2.31104102337390
C          -8.28027172808869  -12.59573956354657   -2.46546566840986
C          -8.22484538880604  -13.50804692961995   -3.53399032274180
N          -9.00820533616617  -14.55700312676205   -3.61294889976070
C          -9.86076442418973  -14.77444560738545   -2.61040635707921
N         -10.01947074480641  -13.96056464269726   -1.56007480824550
C          -9.26101865737012  -12.89378981130484   -1.50067456890717
C         -10.71295267934166  -15.93372569209352   -2.72747931656082
C         -11.43629190054073  -16.52610008346653   -1.75422207043845
C         -12.56316883743835  -17.44234881236493   -2.11294055127209
O         -12.76126004071550  -17.97113103997062   -3.17714919414810
C         -13.40282097396663  -17.49470030008521   -0.89655156353641
C         -12.76412689850726  -16.80429619752843    0.15179216965488
C         -11.46208023400809  -16.33488518978562   -0.31172090413851
C         -10.40153296984804  -16.01600085443273    0.48395780558016
C          -9.08547577941765  -15.82873281098026    0.00456847459645
N          -7.98553861894035  -15.74401961110249   -0.30945988222157
C         -10.47642749009372  -15.93608909861689    1.89177640769020
N         -10.49942738019923  -15.85092366400469    3.03523538522142
C         -13.38789070263060  -16.68986987548283    1.38321033088103
C         -14.63700929893814  -17.27514345899904    1.55240067263835
C         -15.25744789505720  -17.97335966674495    0.51210127961214
C         -14.63917108696013  -18.08473080815799   -0.72634381251082
Br        -16.94977333031646  -18.76911560825025    0.77622867782672
Br        -15.49801445650666  -17.11021912741126    3.22511595988022
H           4.12840600030550    1.69167577281984   -3.25632279589357
H           3.30897449640300   -2.74022318337995   -5.36629859721178
H          -0.41987877835241   -0.43028371726830   -0.83043828051973
H          -2.88921387473149   -6.02540016025530   -2.56980702104976
H          -4.50880191654596   -5.10471170997103   -0.13166532394888
H          -5.80379887011376   -6.20809731215424    1.37960420728313
H          -7.21691077534607   -7.28626610364065    1.30986186376889
H          -6.91948545520612   -4.71489353301818   -0.33317753441898
H          -7.90695586842856   -4.89927042922554    1.12026824463161
H          -8.31051309169408   -5.80445171156037   -0.34067228870143
H          -3.39698848772979   -9.57737094895180   -5.32933099351080
H          -4.81835170987367  -10.63895277615639   -5.43361332366802
H          -2.34053850474479  -11.07506657132611   -3.67807043299321
H          -2.74053155632012  -11.97892879826340   -5.14043014431286
H          -3.74181251271284  -12.14814087940675   -3.69304769076315
H          -6.15030166572290  -11.70687475951723   -3.95665792502631
H          -7.69618718408971  -10.80190550690677   -1.46492506213025
H          -7.53889476806250  -13.38083407878244   -4.36130031581810
H          -9.41662927114633  -12.24002009780960   -0.65128062692408
H         -10.82974592764908  -16.31653824152793   -3.73446792923952
H         -12.93826779871925  -16.15300693667592    2.20315889979510
H         -15.11215734002092  -18.61769499004284   -1.53659978139927
