89
 SCF done       -203.034136330703          0.000763072354
C          -7.41126771861842   -5.63247497227691   11.61346710904283
O          -7.70732457482750   -6.27491974244946   10.63544736265625
C          -8.33155797508496   -5.11245218740033   12.64600531766978
C          -7.62889821466233   -4.28931842165084   13.54433701523810
C          -8.30444625307562   -3.69069157811209   14.59648773699956
C          -9.66615746905157   -3.92983793911928   14.73612039084313
C         -10.35500119586932   -4.75093670183376   13.83874065688573
C          -9.68503699586685   -5.34550234285030   12.77765750276341
Br        -12.20361837244751   -5.06378274494868   14.05970820890508
Br        -10.58530791268454   -3.12022145718423   16.17447865701318
C          -6.22289615963110   -4.24701111843561   13.15548788467515
C          -5.22285368791750   -3.60607726475182   13.83282811807626
C          -5.42514265922171   -2.83366864923204   14.99828613943896
N          -5.53041240170067   -2.19292379876082   15.94365998648176
C          -3.85514853996921   -3.63682753611885   13.48049618647950
N          -2.72717333935874   -3.62717786334223   13.27029255128305
C          -6.07145981911601   -5.08190198710125   11.97389660794117
C          -4.95557854992425   -5.22948844832608   11.21775583175842
C          -4.77587281208671   -6.20037051375957   10.17468891163494
C          -5.23344804940925   -7.50962664426527   10.22985877690610
F          -5.84163544376223   -7.95674826957486   11.33184881301981
C          -4.99690213830570   -8.45115224760038    9.21467261210726
F          -5.47115685487598   -9.68699318567592    9.43277372333378
C          -4.26402592963986   -8.17612587984947    8.06769507310547
C          -3.73792672917095   -6.85515049124367    8.00495659828804
C          -3.98952034141465   -5.88679556643415    9.03641240730634
N          -3.42245333628179   -4.71371818355579    8.77289915871197
S          -2.63472239871064   -4.81726454577256    7.37676298401749
N          -2.99324397228801   -6.34861909192684    7.02383910071179
C          -3.98645709085779   -9.08465440209218    6.99033112114346
C          -4.71366113820222  -10.18556039828102    6.69709077023510
C          -4.51738212282598  -11.10693323581784    5.62718613500139
S          -5.59133775736001  -12.48442279172732    5.60434072649291
C          -4.81178559980967  -13.15441435528025    4.23750357388897
C          -3.79267486266144  -12.37066822311234    3.79647839994565
C          -3.62824974947904  -11.19990229786358    4.56659117915043
S          -2.34155701291437  -10.06408600065649    4.13530004733517
C          -3.22196019265817   -8.57898056248870    4.03541702293656
C          -2.56693874261002   -7.40858023561462    3.91305975575242
C          -3.08389020307040   -6.07674717134609    3.86702404644759
C          -4.28075806899999   -5.56067798074421    4.43423212167252
C          -5.26326817844151   -6.33272133115589    5.21138990037430
O          -5.40989765892702   -7.51455361144265    5.32370050024680
S          -6.39566381501707   -5.20511730873546    6.04987513383294
C          -5.80725644083672   -3.81111726582430    5.12527707343273
O          -6.33810320637445   -2.73577939660966    5.17076770416273
C          -4.59792096877115   -4.19758210773767    4.36960864556643
C          -3.83017610772254   -3.24877913141195    3.66976290326468
C          -2.62366016205226   -3.74932982976321    3.16661925532953
C          -2.26238601591267   -5.08303988508165    3.29000315396454
C          -0.90629578501191   -5.22109693533772    2.70419165467796
O          -0.20837982849344   -6.17814650797967    2.57250909465879
O          -0.50885877854932   -3.96922943135471    2.29870227605843
C          -1.47791688272648   -3.03356972487498    2.54585928083439
O          -1.32768841159744   -1.87769731217745    2.30115861873092
C          -4.29237615232113   -1.89319222214059    3.46605994570955
C          -4.18943336157021   -1.24681437071203    2.29475870262175
C          -4.74630587956824    0.05259199317839    2.04816671310978
C          -5.93653160717087    0.54428281995195    2.45389298785033
C          -6.19981519855655    2.01226585205876    2.33329852397166
O          -5.55525405592440    2.81003579284415    1.70046883494406
C          -7.37604661019607    2.25998254166341    3.19073866300668
C          -7.86908626834915    1.03569519455702    3.68063819552419
C          -7.09013688676459   -0.06070492575765    3.11000590793894
C          -7.51867250228683   -1.35308330542026    3.02490010983455
C          -6.87288265673244   -2.38978605358353    2.31951437110709
N          -6.43359320679459   -3.29190481731219    1.76261462177083
C          -8.72616667407932   -1.82016937825264    3.59487175769673
N          -9.69652942990253   -2.25287373071292    4.02511108036871
C          -8.94741214892677    1.02667580307396    4.55045275295697
C          -9.53032123521925    2.23884370638957    4.89939869475788
C          -9.05102729811163    3.44888444204407    4.38742361252632
C          -7.95947173167886    3.46440252879797    3.52944403920176
Br         -9.87786357162991    5.07880488608565    4.86187794451472
Br        -10.99659447218975    2.23110368876381    6.08943328296276
H          -7.80841998067245   -3.04813828498294   15.30576722318943
H         -10.20463293697754   -5.97980847275138   12.07629973314804
H          -4.11187954020729   -4.56624701592542   11.35864459083543
H          -3.14916273068009   -8.78285561350285    6.38215843488947
H          -5.56487990318575  -10.43090465056776    7.31637998493882
H          -5.15374873757221  -14.08444563919516    3.82924378698780
H          -3.17392786460384  -12.59891701453702    2.94790818346543
H          -4.29209148541095   -8.68023442193170    4.07420233407540
H          -1.49215356459031   -7.46400004443119    3.79510380909917
H          -4.82373458292249   -1.43293132853140    4.28756005520819
H          -3.64150444326795   -1.68517652866985    1.47249784900543
H          -4.12575345474828    0.73743231419567    1.47742820615155
H          -9.33377963903540    0.11213470322624    4.97059043802465
H          -7.57554556287230    4.39276836148318    3.13584310891934
