82
 SCF done       -165.823804109913          0.000756790271
C           2.54595983245244   -1.85504008058591   -0.82564439303898
O           2.08612711791315   -2.82175309908883   -0.27480837302910
C           3.70583519820912   -1.05442688062624   -0.36669986811896
C           4.01211822288375   -0.06021023247262   -1.31137060131435
C           5.08160700352125    0.79296670444352   -1.08619632652527
C           5.82050362169045    0.64099986264088    0.08066216521811
C           5.50447143834249   -0.34780637773345    1.01646957655349
C           4.43922562910770   -1.20957627883819    0.79139006013173
Br          6.52393015071806   -0.52777749239233    2.59588712368765
Br          7.27858916258346    1.80367168656626    0.38710007189642
C           3.06099625938117   -0.14429312357711   -2.41553748235606
C           2.99155514557666    0.72362539509135   -3.47108435598070
C           3.87693563788360    1.80770393494512   -3.66270332654083
N           4.56770707856914    2.69843937196007   -3.87509238280845
C           2.02949239280619    0.68397320527888   -4.50461623478098
N           1.28075671295356    0.72856880673424   -5.37303682463315
C           2.16988241972178   -1.26191635730842   -2.14325460102607
C           1.25179912434312   -1.76868329788201   -3.00789261797514
C           0.28577468087004   -2.76977766055271   -2.73396860350759
S          -0.49941087167311   -3.63171301459920   -4.06991533564362
C          -1.42731155680289   -4.44054588517225   -2.82453626477543
N          -1.12162837183095   -4.02103243907947   -1.62010831224894
N          -0.19680976625697   -3.12225435538101   -1.57822874868471
C          -2.40683070901476   -5.42130202152796   -3.13388335460157
C          -3.13181589077444   -6.01991852898956   -2.15982347530075
C          -4.15243817958814   -7.00098821078609   -2.28427028969504
S          -4.68602894044373   -7.73270439525678   -0.79959085981559
C          -5.81149721204690   -8.76201183258940   -1.62813591208348
C          -5.74785948059258   -8.55667546281043   -2.99906567430132
C          -4.83912809145359   -7.54196208500746   -3.36897019232865
C          -4.69698129323993   -7.07738615911893   -4.78260060053123
S          -5.03656931807583   -5.26246763639844   -4.91293736374945
C          -5.60974072744052   -7.82296372611989   -5.75285462229540
C          -5.70354438737827   -9.29020122728864   -5.36758261640110
C          -6.44531720133382   -9.41402611898048   -4.03222680205623
O          -6.57239504943287  -10.75854073930010   -3.64063787899763
C          -6.62363565138040   -9.62041586443205   -0.82178422312858
C          -7.81527759104470  -10.14157723310108   -1.17363456904626
C          -8.61343171405897  -11.01524692252788   -0.35865593816147
C          -9.92051180927156  -11.35352276733087   -0.75265537379119
N         -10.68663134034968  -12.16934024352032   -0.07067220430339
C         -10.16657793144702  -12.73448894676771    1.02007705422915
N          -8.94640863265965  -12.47311241998255    1.49965145617436
C          -8.19736571466066  -11.62301025226729    0.83712151622215
C         -11.02932342012193  -13.64062128792674    1.74065735790101
C         -10.68931269803595  -14.56927704928815    2.65883670438329
C         -11.73917610070716  -15.14383088417690    3.55556677725890
O         -12.93361203206025  -15.08797517579831    3.40668232451940
C         -10.98789427531707  -15.73502574592400    4.68377104455686
C          -9.60549956280046  -15.65279970664121    4.42846442128094
C          -9.39973232174874  -15.07692099777937    3.10242229935681
C          -8.27509348435562  -15.21707500986696    2.34394636966202
C          -8.20161163975218  -14.91004049300027    0.96655128543335
N          -8.08509497602162  -14.76671197979827   -0.16550141806837
C          -7.07467583880518  -15.78770401961895    2.82061222006233
N          -6.07559177753673  -16.22923845565269    3.17046867416675
C          -8.70271754632223  -16.11862209093028    5.37032546904759
C          -9.19440680015372  -16.66954788267292    6.54760766050129
C         -10.56877100883151  -16.76350872010423    6.78596261340945
C         -11.47755901117538  -16.29007761171411    5.84892417774765
Br        -11.20842706416147  -17.53221427857038    8.38829011462367
Br         -7.96545388514963  -17.29717571958572    7.83738161860796
H           5.35929712683428    1.56394323193767   -1.78637775877812
H           4.18570696388710   -1.98039181263012    1.50259720653094
H           1.22743376334655   -1.39526430501515   -4.02353616166682
H          -2.52936151081676   -5.64062981144484   -4.18040380367919
H          -2.89437867195304   -5.73569946641019   -1.14218812263575
H          -3.65627688266961   -7.17304499395431   -5.10411118521027
H          -6.28148293949107   -5.32818678121082   -4.44696223465881
H          -5.22494358141187   -7.70893210764375   -6.76643141880201
H          -6.61151002032218   -7.38715286752246   -5.72737571104272
H          -4.70273717468995   -9.72006214907237   -5.26851669028333
H          -6.24435917116180   -9.85493348891903   -6.12725551860544
H          -7.47773787609647   -9.06289940359924   -4.16823086569304
H          -5.69591483938704  -11.14452694536278   -3.53198101805617
H          -6.23774704596190   -9.78810686059691    0.17536741522145
H          -8.23916773229638   -9.91234666043592   -2.13885209446245
H         -10.35471014995467  -10.93392080774381   -1.65185138791685
H          -7.22022141879896  -11.43788598107465    1.26401381862486
H         -12.08768851722429  -13.50505171560745    1.54963219380633
H          -7.63686792915661  -16.05678343321369    5.21966406646303
H         -12.54024834651328  -16.35416612987127    6.02458713577199
