89
 SCF done       -200.571343406518          0.000396471036
C           3.80320209825854  -10.81427662664866    3.09659524227645
O           2.73066093469528  -10.51588009673479    2.61605391257708
C           5.10544126612077  -10.20969190522087    2.75978332122285
C           6.11453033973538  -10.78759553372696    3.55025358779450
C           7.42644742975332  -10.36882025342889    3.39336289175380
C           7.70420710044472   -9.38170889780698    2.45470644662603
C           6.69190063081200   -8.81192504098054    1.67685327420776
C           5.37616569666641   -9.22848084525655    1.82806797143935
Br          7.10000553561239   -7.47172638169181    0.41073676940549
Br          9.49334114962004   -8.81450544595610    2.23975879514062
C           5.51336239410559  -11.78198211839139    4.43607089158002
C           6.17753764997076  -12.48075195868329    5.40448029867382
C           7.56163042306916  -12.34875538353550    5.66021141949240
N           8.67866192297842  -12.28500780629327    5.91226610033535
C           5.60210754056621  -13.40520489418068    6.30608236550509
N           5.22662645474688  -14.15851396062175    7.08555018444355
C           4.09089339528698  -11.84339453357019    4.11949843143753
C           3.20113769201166  -12.74073745030745    4.62796510865491
C           1.81697144601254  -12.88261880438636    4.37312651759788
S           0.76753409531302  -11.87464734499811    3.38712525597900
C          -0.51132729553677  -12.97047843478572    3.85389883834569
N          -0.09293293771137  -13.93601472831235    4.64745857086443
N           1.16235153711356  -13.87984693148417    4.92942731606538
C          -1.86061826928938  -12.86447472503933    3.42376122157029
C          -2.30792142943845  -11.86345803919652    2.63282914256715
C          -3.63769029086555  -11.72237365730473    2.15420740034821
O          -3.90132629831888  -10.62421593377198    1.38210368197277
C          -5.18156638875045  -10.71996798274466    1.02654506856557
C          -6.18400480616392  -10.05632262133903    0.30288564994792
C          -6.02727862216344   -8.79880280066854   -0.47767924513952
O          -5.04072915694286   -8.55899544599325   -1.12924486862108
N          -7.08623519484807   -7.95396906756640   -0.39618364859048
C          -7.31052639802983  -10.88055735124618    0.43705468454888
O          -7.04789877819206  -11.97402586328572    1.21813847962965
C          -5.76228747465486  -11.87669876705921    1.57624579427349
C          -4.76606436203221  -12.52662528355964    2.30658273448636
C          -8.57887943491304  -10.75359075430525   -0.18721065484901
C          -9.61682226326891  -11.58520392057109    0.05975092388477
C         -10.89024252363698  -11.51289553886432   -0.59555085825801
C         -12.09418707907661  -11.85993692143775    0.06136432603471
C         -12.14416746286325  -12.31444086014267    1.46438318281404
O         -11.24610824086325  -12.44520578717318    2.23975853073418
S         -13.85329693718050  -12.66433941940222    1.91181939206028
C         -14.47221761549379  -12.15752319446546    0.32595883648674
O         -15.64200143015861  -12.15804553868378    0.05982314619979
C         -13.34447469350206  -11.76271040679306   -0.54660271065890
C         -13.51616340258980  -11.29961417774324   -1.86494937806552
C         -12.31738800145657  -11.04068484211453   -2.54314779430257
C         -11.06488369058478  -11.14470304420868   -1.94480583762827
C         -10.05445966050945  -10.95157397776788   -3.01755911093709
O          -8.86492782400200  -10.99435094679285   -2.98834476981997
O         -10.74292323248924  -10.73300979024237   -4.18726922697301
C         -12.09656606293943  -10.76776555280349   -3.98843326640829
O         -12.87628488665818  -10.62571838011404   -4.87741833450163
C         -14.83295936772457  -11.10058673319528   -2.42699861640995
C         -15.17254992130577  -10.05165691045339   -3.19266556494858
C         -16.50456005133471   -9.82073581396803   -3.67363619643101
C         -17.67480273194568  -10.00597226523619   -3.02625910197361
C         -18.95052756349858  -10.00287297856717   -3.80916387066028
O         -19.09881200690248   -9.62141206917394   -4.94253233432531
C         -19.94984317155124  -10.61149304420951   -2.90886901086468
C         -19.37422122616659  -10.82834904937506   -1.64240237840381
C         -18.00649644269165  -10.31524355829971   -1.64031302286590
C         -17.30198751289072   -9.98473896945997   -0.51967179413211
C         -16.04874799753227   -9.33860619938418   -0.50051498875464
N         -15.03736260068607   -8.80792194798524   -0.38701061600469
C         -17.77299257450296  -10.20184882857513    0.79646743412085
N         -18.10963261622963  -10.34035859592842    1.88333065759760
C         -20.11670093619862  -11.43696142380969   -0.64362023884104
C         -21.42922909368010  -11.80108145178314   -0.91916830753851
C         -22.00099610367775  -11.56121379070309   -2.17297791806106
C         -21.25579778849206  -10.96592750175163   -3.18202817791736
Br        -23.79240010566199  -12.05180096152728   -2.51322217073564
Br        -22.44257928699388  -12.63819444731262    0.43651452741707
H           8.23580092810438  -10.78423488808716    3.97117678841369
H           4.58421630089062   -8.79898086880603    1.23423771740831
H           3.55651071865354  -13.49242998367529    5.32250637498353
H          -2.51839467806379  -13.64621387370339    3.77278816867359
H          -1.62742583013353  -11.08677245886939    2.30804875945005
H          -7.82486036662077   -8.08257012808058    0.27160515435253
H          -7.00837334016931   -7.06473764773090   -0.86321366559301
H          -4.82998159693562  -13.43908320903383    2.86022609148832
H          -8.66816544607924   -9.93592958183764   -0.88487556574404
H          -9.51293640983521  -12.32265736433325    0.84259906684549
H         -15.59120036849964  -11.81245713839009   -2.13089785048615
H         -14.42552876101557   -9.34060275277999   -3.51541643889116
H         -16.58625110516893   -9.47968542474785   -4.70177302291322
H         -19.70124373725147  -11.64632369283451    0.32895468771974
H         -21.68427179539011  -10.78403847621466   -4.15545057735258
