88
 SCF done       -178.192303833124          0.000630859847
C           0.58043779413875   -0.05313152847683   -0.76101603088703
O           0.62275010959316   -1.13684508833978   -0.23810640297311
C           1.52767490195598    1.06397195307662   -0.53890320431442
C           1.22486849478861    2.13386820399367   -1.39832719404176
C           2.00431368213176    3.28024709192717   -1.36551021783098
C           3.06648316301894    3.33841707526624   -0.47146103815965
C           3.35672941556524    2.27003312063961    0.38184800748304
C           2.58390348123716    1.11698583598254    0.34705369454600
Br          4.80390392536507    2.38032459072182    1.58973539357076
Br          4.12818188586237    4.90102628604697   -0.42585036685156
C           0.05949184596332    1.78217610257824   -2.20415678260911
C          -0.56651236630703    2.60909963349393   -3.09670030422303
C          -0.13581803069243    3.92123621845268   -3.39544174886338
N           0.16808067566765    4.98903066727991   -3.68408165159831
C          -1.72896733308970    2.29308430331193   -3.83446740344728
N          -2.67479002995105    2.12070311952026   -4.46123632700635
C          -0.33979182682366    0.43238931929259   -1.83334933156263
C          -1.29332395856837   -0.31068015005364   -2.45398215554124
C          -1.78097161790287   -1.57838351436918   -2.04284473216115
S          -2.61309679616308   -2.62985431275840   -3.19782526763742
C          -2.81146618307887   -3.72867338442568   -1.84910271791778
N          -2.31243724965726   -3.24694036228164   -0.73325707389955
N          -1.75786629048352   -2.08890935766761   -0.84365238483763
C          -3.43510690590941   -4.99469940630996   -1.98388100642540
C          -3.52906232752647   -5.85923473248998   -0.94098954155620
C          -4.11751487427036   -7.14180676806588   -1.06408851924100
N          -4.21467637771428   -8.04365232449744   -0.03061169609050
C          -3.82755860994167   -7.82251031267175    1.34256238480250
C          -4.84754932783701   -6.96469400160602    2.08675103964003
C          -4.80867041385813   -9.24901427302431   -0.43706603668042
O          -4.98948036074329  -10.19591178950328    0.30324237044566
C          -5.09293853851806   -9.05271276517163   -1.84264942254275
C          -4.66113131467980   -7.75141075659424   -2.19509562108267
C          -4.94696708242860   -7.55285090397819   -3.59988674815598
O          -4.76509544437592   -6.60977082445998   -4.34307696632455
N          -5.54751942903601   -8.75655308939548   -4.00566014424466
C          -5.92578757699679   -8.97243697549769   -5.38162348983904
C          -4.89305161761939   -9.81251608756043   -6.12904935652511
C          -5.63297343160464   -9.66354871385823   -2.97508034576496
C          -6.18830928248249  -10.95900540249129   -3.11412156838745
C          -6.18818465204673  -11.86414689130538   -2.10119162282259
C          -6.71381931757386  -13.17799412663538   -2.20269332271385
S          -6.46354811814272  -14.29366153482890   -0.88825738442603
C          -7.29973843163386  -15.56108712355038   -1.72357462281515
C          -7.78151702357992  -15.10773055273224   -2.95617017002583
C          -7.42821038477581  -13.77806590545137   -3.22009649904048
C          -8.54049270428080  -15.94447553514106   -3.88063876556591
O          -8.79480356613773  -17.11116678151222   -3.72640622936499
C          -7.51866494657781  -16.84368191625694   -1.15818138132486
C          -6.72906580103880  -17.52603850189022   -0.29005180762370
C          -7.30406380711518  -18.63642973457643    0.52377494262411
O          -8.37272126585719  -19.17257375156827    0.37348432775592
C          -6.30552201935514  -18.87770902899847    1.58960273540180
C          -5.16815845816678  -18.07981277859018    1.36328003730986
C          -5.34780253250426  -17.34354443901908    0.11440869476727
C          -4.33760218728498  -16.82615126427438   -0.64938055294446
C          -4.50927072542582  -16.36119717030349   -1.97096612998056
N          -4.58990287826347  -16.00955083090835   -3.06025305708617
C          -2.98802230101624  -16.78457446648039   -0.23804255015922
N          -1.88310558362250  -16.71772383533362    0.06185177280386
C          -4.11164696847463  -18.11407244410335    2.25743046232762
C          -4.20323682206528  -18.95381076665584    3.36150492653471
C          -5.32867654883032  -19.75568806530195    3.57086202690331
C          -6.39390172109129  -19.71839717927189    2.67998824931051
Br         -5.41928028609546  -20.89792183537089    5.07235872306027
Br         -2.76994694735586  -18.99396634622826    4.59127766674973
H           1.81543493156967    4.12276807179613   -2.01073535143918
H           2.79789214781036    0.28239021141368    0.99666106026000
H          -1.74361353125860    0.06528134692390   -3.36343207625128
H          -3.82553780995418   -5.25426250759334   -2.95813667758121
H          -3.12432374379466   -5.55861056695019    0.01427739683777
H          -2.83659504507445   -7.36230048619028    1.37357262682238
H          -3.77250291115711   -8.81260066541114    1.80351016772815
H          -4.94537166514049   -5.98506379158533    1.62456522442163
H          -4.53273686310124   -6.83391024424893    3.11807713630003
H          -5.81994578136349   -7.45134922982458    2.07945897221888
H          -5.98876243859397   -7.97971060848710   -5.83594947358200
H          -6.91403802706702   -9.43905656369646   -5.42106338114445
H          -3.93031568464396   -9.30762971974979   -6.12253492455442
H          -5.20602744327678   -9.94775104328009   -7.16052561452989
H          -4.77278846005842  -10.79003247729509   -5.66699973280337
H          -6.60617259001522  -11.22345893647306   -4.07393552322992
H          -5.74508782091869  -11.59348771857685   -1.15142757641604
H          -7.69644839548246  -13.27429877539345   -4.13086816067313
H          -8.89244379324419  -15.39240420316058   -4.77249503197184
H          -8.45728029359489  -17.32374061873591   -1.42412037750648
H          -3.23216061446027  -17.50388299198817    2.12778649538179
H          -7.26844294608561  -20.33122237106396    2.83427426101357
