96
 SCF done       -200.194757023754          0.000479874048
C           2.15288200621286   -0.86210710982100    1.92415293124481
O           1.06989658251242   -1.36049408140663    2.12775083222757
C           2.67142645645460    0.38225282590013    2.53030983707092
C           3.88992217936315    0.73839458297541    1.92570574085293
C           4.54238163526558    1.89330665319293    2.32758164902987
C           3.96996599330371    2.66807184701156    3.32963096892001
C           2.75974037906262    2.30422392169408    3.92562464833065
C           2.09774099096984    1.15289746221294    3.52045224796194
Br          2.00812833169728    3.37237969822743    5.29022098318916
Br          4.86064711116924    4.24120327901137    3.88036924627070
C           4.24064412469551   -0.27210462865412    0.93190231414804
C           5.39788943954658   -0.30938255660269    0.20433555579757
C           6.39978654159592    0.68436169479067    0.26236551260182
N           7.23873480903634    1.46654499601563    0.26506606023031
C           5.76584932256988   -1.34811783283167   -0.67968531720321
N           6.14551495568621   -2.16304831785480   -1.39241739125802
C           3.17973494571217   -1.26629846199089    0.92519672031196
C           3.03657826059533   -2.29814813760598    0.05410330489409
C           2.07417834957226   -3.35223941103596    0.19386319964606
C           1.43840691742243   -3.90700192465115   -0.91139522762842
F           1.72289192321733   -3.41898027612261   -2.12614757893047
C           0.45686059036388   -4.90259425472575   -0.82769382028145
F          -0.09991430752576   -5.29055291500107   -1.98251439841265
C           0.05160749164552   -5.46341015223462    0.38249280584818
C           0.74902114417690   -4.97297431322789    1.52556133463604
C           1.74460926120666   -3.94303567997339    1.44053607068784
N           2.29981559567966   -3.68622257494987    2.62115176796453
S           1.60420127883939   -4.60986189058055    3.73289777487230
N           0.58879230007517   -5.40437110646828    2.77458901710014
C          -0.96878276762529   -6.44053177398051    0.60009939045519
C          -1.75792938660712   -7.02310164204067   -0.33926795736228
C          -2.80681610160968   -7.95927643907469   -0.14977783913827
N          -3.30210530223868   -8.53645946995150    0.99852341022028
C          -2.90486357256346   -8.33636473526809    2.37250228170510
C          -3.47218875979984   -7.04129212683361    2.94930097108797
C          -4.39501930470433   -9.39102911726511    0.72491300799791
O          -4.99786327197283  -10.00473172971432    1.57941071376571
C          -4.54862333300097   -9.32901453755034   -0.70989287349785
C          -3.56581666455641   -8.45786964212237   -1.21312458616745
C          -3.72693766479249   -8.39813826996482   -2.65104815188165
O          -3.12653825468519   -7.79973696023946   -3.51336354785837
N          -4.83346421871661   -9.24531611187426   -2.91699363750928
C          -5.22480690817454   -9.48335491004535   -4.28624957021722
C          -4.79652268544802  -10.86609150170184   -4.77022915166591
C          -5.33284859486242   -9.80269281288108   -1.76612699288943
C          -6.44786357468563  -10.65168008834331   -1.55088479056530
C          -7.37533666575971  -11.09698608427847   -2.43488874692883
C          -8.50734614559248  -11.90520362439246   -2.10078649885249
C          -9.43254536006956  -12.22286800256218   -3.13259207191293
N          -9.37253283795594  -11.81352605563636   -4.39820380922560
S         -10.64144994179907  -12.38423459658338   -5.19588265655639
N         -11.33635280358197  -13.17959687724802   -3.98078219317480
C         -10.58807370529119  -13.03981956746245   -2.88665313876601
C         -10.83819825921021  -13.55784370357907   -1.58842037217000
C          -9.93662975455663  -13.17948109961099   -0.59402394060996
C          -8.80973755153027  -12.40709074534716   -0.83713803394131
C         -11.97108513815018  -14.36169917208380   -1.25453222639287
C         -12.74955009989263  -15.15526606963469   -2.03500943099782
C         -14.09736428888206  -15.55110402462759   -1.53547476550165
O         -14.51615300764286  -15.44628593786602   -0.40826226124950
C         -14.81640975487221  -16.04391301062417   -2.73101104819509
C         -13.93512712387949  -16.07638257202136   -3.82800511281372
C         -12.60641103595555  -15.66584831104514   -3.38100611926987
C         -11.43353885593591  -15.92977902486500   -4.03376641632026
C         -10.16014870466981  -15.75076357642646   -3.45540635925741
N          -9.10399039826459  -15.64812981037859   -3.01853134103593
C         -11.36057208936208  -16.46308701655401   -5.33702016027040
N         -11.24764599166650  -16.86700623283024   -6.40507670082212
C         -14.39668972864577  -16.47718202167000   -5.07016412887717
C         -15.73202550461770  -16.84342019721408   -5.19632496103096
C         -16.59723878558217  -16.82010892677430   -4.10002501858012
C         -16.13914886818355  -16.41624074356557   -2.85225054776037
Br        -18.40514290290232  -17.33234349284044   -4.30035709234017
Br        -16.37021516476451  -17.37486887714415   -6.89382413600537
H           5.47392335253927    2.20966084543826    1.88699597460710
H           1.15984841537827    0.86410242464989    3.96889275592592
H           3.65617235604132   -2.34422609717372   -0.83303355436924
H          -1.07667889596793   -6.68169564679737    1.64535072685030
H          -1.62908245987261   -6.77197824353206   -1.38334908212916
H          -1.81657461916202   -8.37338326324751    2.45414747031573
H          -3.32206873268254   -9.18503523193535    2.92392309335773
H          -3.15729565041444   -6.17645431839848    2.37036069830353
H          -3.13420390952806   -6.91803856829534    3.97432252808004
H          -4.55871148644295   -7.08264294632990    2.94389914736590
H          -4.70925301424902   -8.71709483240156   -4.87362860380055
H          -6.30184942864906   -9.33609546148383   -4.39728321994371
H          -3.71394040573522  -10.95519643888084   -4.72242237949931
H          -5.11039584181620  -11.00598083703767   -5.80069772931031
H          -5.23544145836941  -11.65295162712936   -4.16143548906330
H          -6.54265708962312  -10.92391873448545   -0.50746937795667
H          -7.32558562389885  -10.84006453027428   -3.48112297322903
H         -10.10804969708806  -13.54140872951398    0.40921567845142
H          -8.14942947090563  -12.19473978819332   -0.01140278445562
H         -12.30577025310587  -14.28291220524482   -0.22359978258561
H         -13.75680270477417  -16.50198693661073   -5.93759400265812
H         -16.79986715690008  -16.39270892494600   -1.99950727249707
