99
 SCF done       -217.006744449876          0.000695016880
C           1.03469522630222    1.25160593878121    0.63863637437246
O           1.04135477129494    0.72058994658945   -0.44726816243976
C           1.66930235403189    2.53546278637569    0.99918991041343
C           1.27325727981016    2.91566613587298    2.29421435145087
C           1.73873335233031    4.10584867196831    2.83028048411502
C           2.59525269703602    4.89081403474241    2.06714180133393
C           2.98487455916680    4.50253852254173    0.78212601070376
C           2.51411906990951    3.31517321776421    0.23673897817226
Br          4.15393756489871    5.58668800457747   -0.22846698474078
Br          3.23174679887402    6.51134321363005    2.79967964205383
C           0.39483631511084    1.88777603161118    2.84643073319615
C          -0.14448221517524    1.88937219782471    4.10368616844156
C           0.02990631256586    2.93483055419733    5.03764356001197
N           0.13178763335463    3.75587469051895    5.83223126694645
C          -0.93286979406539    0.85309252074645    4.65098234375193
N          -1.56317540397599    0.04662143597451    5.16924817683193
C           0.26568641198810    0.84238379574578    1.84551085272673
C          -0.53172339969812   -0.26060562901235    1.91076965260521
C          -0.48259221539255   -1.35494860076293    1.01317367369485
S          -1.88293379461213   -2.37469299943599    0.76198030970268
C          -1.05290729006649   -3.45253512303078   -0.35432200970792
C           0.25230482151247   -3.00908690993021   -0.47902929365280
C           0.56260959556010   -1.86814747834351    0.27219454819435
O           1.88540130999561   -1.61008775329636    0.12944139248377
C           2.38260025694054   -2.53897477112740   -0.72938034854073
O           3.50584979524885   -2.61178835478007   -1.08778126623306
O           1.39166911787019   -3.40057499618949   -1.11339142117802
C          -1.78714647922117   -4.53855761504795   -0.89984665653232
N          -1.37020029619196   -5.49711165177019   -1.78318942714833
C          -0.05552943987044   -5.69613450338321   -2.34745402293699
C           0.85358732530642   -6.45673336223273   -1.38697150154349
C          -2.40105467506243   -6.43402595895974   -2.06354752512898
O          -2.26602336430613   -7.36503324087204   -2.82062019055230
C          -3.52322674127960   -5.97205090952518   -1.27522335241225
C          -3.12099796029479   -4.80833492075589   -0.58996641203646
C          -4.23501867349892   -4.35983697751871    0.20871923305769
O          -4.34801288577866   -3.41586580870109    0.96556783747702
N          -5.25562394002176   -5.29467086947279   -0.04794365118454
C          -6.53199529555607   -5.15590752798207    0.61368563336315
C          -7.54167775274582   -4.39716325352761   -0.24435715977110
C          -4.84171561772799   -6.26405442794209   -0.92965176974675
C          -5.51684954622841   -7.42153920247694   -1.40365747600654
C          -6.82281003114082   -7.75361693118711   -1.30555070345300
C          -7.33715154515948   -8.99886709179558   -1.80969261478180
C          -8.60274505291907   -9.11212164717414   -2.42404291953700
C          -9.51893462707520   -7.96207981597404   -2.55977993629273
O          -9.32479180258503   -6.82415929746865   -2.24713206844816
S         -11.05527658840172   -8.51358878856347   -3.29142876882860
C         -10.48202071765048  -10.20356159245510   -3.46006590338247
O         -11.18915675961931  -11.07066946719753   -3.87787434980476
C          -9.08679589721595  -10.30179067642690   -2.97167139114144
C          -8.33555752588612  -11.49479400692759   -2.95440806877266
C          -7.13152714161074  -11.39988121314420   -2.23614059280694
C          -6.64654800541329  -10.21815382234491   -1.69542781169579
C          -5.42002384060521  -10.56167265235529   -0.92547527535718
O          -4.73884379248619   -9.89292202774077   -0.21456899872771
O          -5.19438438392093  -11.90408528406333   -1.10954035542682
C          -6.16552009501890  -12.47491601466061   -1.88846394573981
O          -6.17190913490193  -13.63214044242496   -2.16882427628117
C          -8.66819424308907  -12.74456322606496   -3.59065078310126
C          -9.25587281265587  -12.86856161563528   -4.79732878536350
C          -9.41811808959101  -14.13243951998349   -5.43125398408515
C          -9.67295895764109  -14.34615779170818   -6.74590742844080
C         -10.15155641821858  -15.68371369412239   -7.20717037747691
O         -10.12238259252391  -16.71615650337524   -6.58666804427139
C         -10.71046084072628  -15.44093805877634   -8.55395216772727
C         -10.47401640843494  -14.10488537273109   -8.93115460955728
C          -9.69916181199480  -13.44313037536493   -7.88275588695862
C          -8.97358829269926  -12.29492634388582   -8.04304829365344
C          -8.03658559197585  -11.78576708327784   -7.11647758883214
N          -7.23764975168242  -11.32859668471595   -6.43109632055969
C          -9.00409502395988  -11.51042469227816   -9.21888748261091
N          -9.00285487365453  -10.83213353483910  -10.14343001612525
C         -10.94703530257615  -13.64014372211094  -10.14714949209795
C         -11.63841850468753  -14.51918617836448  -10.97295945522525
C         -11.85386454834759  -15.84906726268246  -10.59816385780197
C         -11.38934945515532  -16.31716934612164   -9.37564755204415
Br        -12.78362239684948  -17.02546245555559  -11.74525363036720
Br        -12.29216961853043  -13.88273090759408  -12.62642512620162
H           1.45741778552956    4.44142987849076    3.81521391642903
H           2.80516672850634    3.00426062093571   -0.75462650883628
H          -1.28239955527209   -0.33803825033537    2.68626594684581
H           0.37911853562680   -4.73506033642266   -2.61879666390732
H          -0.20448622181022   -6.29057078630935   -3.25305399192333
H           0.96318750347181   -5.92019085617810   -0.44793046115984
H           1.83588487862845   -6.57523307072112   -1.83377458375938
H           0.43902115792640   -7.44061963188323   -1.18144599476296
H          -6.33641118368869   -4.58072387543374    1.52397015645712
H          -6.89998673180711   -6.14460438483937    0.89551692838293
H          -7.16930922763566   -3.39624113161859   -0.44761722575291
H          -8.48365359120817   -4.31286414406726    0.29008682328725
H          -7.72526893937791   -4.89676796650341   -1.19224517665571
H          -4.85042059660126   -8.07904071734530   -1.94727600660582
H          -7.55477170330193   -7.06389489684809   -0.91813864660560
H          -8.26001494160449  -13.62708012614411   -3.11497197588835
H          -9.60393450181861  -11.99701237638326   -5.32977083097596
H          -9.38144561118582  -15.01709157964024   -4.80471423507942
H         -10.80542062054336  -12.61990135270743  -10.46564717724211
H         -11.55420647544939  -17.33985872868949   -9.07370973294968
