100
 SCF done       -204.573936512499          0.000638706221
C           2.06143975302080   -1.26474702330358    2.15781756313341
O           0.91564101841379   -1.53596513337342    2.40847891007895
C           2.92724956079957   -0.33199448978791    2.91517379144783
C           4.14998166102745   -0.15665063619023    2.24526527603551
C           5.10986266375615    0.68714233530353    2.78333741223601
C           4.83175363059931    1.33583869937178    3.98019979123783
C           3.61126389786360    1.15584678701646    4.63728308703374
C           2.64447262245627    0.31719994429263    4.09910260863418
Br          3.26040768217595    2.05053572441078    6.26257652676107
Br          6.14358874779913    2.48055856111300    4.71501618994961
C           4.15124946873265   -0.97032061301587    1.03266162624023
C           5.18752113258900   -1.06348810269832    0.14390751030132
C           6.40219092079206   -0.35205983263438    0.26719087949331
N           7.40722036099627    0.19918134046649    0.30844675778005
C           5.21271625631191   -1.87008456790060   -1.01546840432744
N           5.31893032942753   -2.49810853242164   -1.97025373535594
C           2.88327737572401   -1.68399947629672    0.98278237401199
C           2.47739987464091   -2.51496904116337   -0.01285510784100
C           1.32670987137698   -3.34524143824991   -0.00896896561504
S           0.71046836673080   -4.02231330378076   -1.52292689810581
C          -0.46685956909354   -4.84297612239937   -0.52070419407284
N          -0.30358902269136   -4.58478650602192    0.75771209636332
N           0.66325127597410   -3.77721751118596    1.02729305111698
C          -1.46412400301731   -5.69500851684532   -1.05741029954572
C          -2.36988975111823   -6.32266515968736   -0.26318304434595
C          -3.36225747902735   -7.19016046267832   -0.77922082877078
N          -4.30342127803856   -7.82895219679797   -0.00493441690343
C          -4.48591903137643   -7.68268235379863    1.41996015988503
C          -5.19219147860033   -6.37588992014726    1.77082667772432
C          -5.14993340717818   -8.64178190550390   -0.77077535233601
O          -6.05805532625672   -9.30558891925383   -0.30439377863483
C          -4.66982039994355   -8.48479687795579   -2.12640029552086
C          -3.57766251305496   -7.58727510424431   -2.09982378514870
C          -3.09267906629166   -7.43584312991718   -3.45671985532751
O          -2.19329000321759   -6.77158236863185   -3.92921370445307
N          -3.93448029891173   -8.26097641416513   -4.22100491027192
C          -3.72883701173051   -8.43340615695581   -5.63952528027577
C          -2.99739418950714   -9.73633580478001   -5.95263069539207
C          -4.87446943003945   -8.89631941106708   -3.44618601929591
C          -5.84625681198494   -9.78929338339084   -3.94912894591666
C          -6.73920943462121  -10.41429633733766   -3.13439196757486
C          -7.70697471881795  -11.33804590616313   -3.57780448595797
S          -7.90444101298835  -11.74589148779006   -5.25606761699030
C          -9.17599458639645  -12.87627518842357   -4.88640659907359
C          -9.43438069639532  -12.89812627551587   -3.51856468434088
C          -8.59872396904055  -12.05448276635973   -2.78290494791806
C          -8.66265393244930  -11.91466186640633   -1.29507898426047
C          -9.52738243703492  -12.99618529632802   -0.65335395195192
N          -8.72939307664585  -14.25106700641380   -0.43728694534845
O          -9.30744666495500  -15.29891498434457   -0.58066575261512
O          -7.58750404349458  -14.11392823574598   -0.09639953753211
C         -10.77760369964358  -13.31998787917999   -1.46771548181922
N         -11.66460187087443  -12.11001823287254   -1.51169970134219
O         -12.43748773896246  -12.03148459503903   -2.42833917746939
O         -11.55753938796609  -11.31874732709922   -0.60952510693066
C         -10.45347530337088  -13.78598480609771   -2.88321284534018
C          -9.87779027344449  -13.57598444076135   -5.89472337275213
C          -9.45958866615497  -13.87810273128428   -7.15467948449239
C         -10.45116553081825  -14.17067140226458   -8.22384104502397
O         -11.62379513517520  -14.41909460444200   -8.08392073931490
C          -9.69210733432340  -14.02888611792046   -9.48822317279989
C          -8.33074419598365  -13.81290718905795   -9.20073593532294
C          -8.14190643233310  -13.87415359175629   -7.75436839552027
C          -6.96579611759950  -14.16065376910412   -7.11348160288242
C          -6.91816600121609  -14.52197055403706   -5.75015916492633
N          -6.87273188956294  -14.86222768483685   -4.65524424027577
C          -5.71026299950964  -14.19466777157959   -7.75203061526657
N          -4.66600650558072  -14.19546659481255   -8.22722377190710
C          -7.42691100852042  -13.62228833417967  -10.23108022930402
C          -7.89681515814945  -13.65231744153363  -11.53929391908120
C          -9.24662872185552  -13.88061359979091  -11.81868415922616
C         -10.15693967077375  -14.07132280163500  -10.78610007260621
Br         -9.85458481039120  -13.92845006668690  -13.60710125428226
Br         -6.67134884279277  -13.36932666604107  -12.94978158800326
H           6.06092986481630    0.85535555930497    2.30525769346532
H           1.69671453676688    0.16960214930864    4.59304803789739
H           3.07340515236346   -2.58843764154904   -0.91282094108164
H          -1.47613692932756   -5.83112404192809   -2.12987607583368
H          -2.32150855898536   -6.15590608142975    0.80286772722866
H          -3.51596275053258   -7.74618796897262    1.91981289255353
H          -5.10154123793153   -8.53019502710863    1.73374045688637
H          -4.61114915608949   -5.51726113647092    1.44273412683087
H          -5.33062266754489   -6.31252846770071    2.84623304067864
H          -6.16782691970512   -6.33909160368924    1.29228406493335
H          -3.11992026816847   -7.58433883717377   -5.96192138401047
H          -4.69225225017371   -8.39193741391800   -6.15524361823278
H          -2.02406195946895   -9.74125124617151   -5.46856071606581
H          -2.85101101793822   -9.82728807179662   -7.02505391484691
H          -3.56128477997882  -10.59837954856827   -5.60291586849916
H          -5.86858548912561   -9.98253024134329   -5.01297218373392
H          -6.71049268219195  -10.21484629348441   -2.07153458436899
H          -9.06533016875249  -10.93121902937413   -1.03506983621246
H          -7.65864028156005  -11.96743317257684   -0.86505787885326
H          -9.81546327610550  -12.66404490214226    0.35258344404153
H         -11.36253196734212  -14.09741654817749   -0.95923436593122
H         -11.37145594990085  -13.79762847100788   -3.47577151800621
H         -10.07681799733591  -14.81234458244930   -2.84396715558205
H         -10.91016532123884  -13.83088935014847   -5.67510963114386
H          -6.37975879258340  -13.44202414539363  -10.04693247369354
H         -11.20090366305345  -14.24844330879681  -10.99308256069647
