96
 SCF done       -201.964972803608          0.000793307009
C          -0.05587206133840   -0.18814144370716   -2.99686117112318
O          -0.75064185724161   -1.04445950047388   -3.50082653450030
C           0.11949569284087    1.19235963420492   -3.48591840537177
C           1.02898749374054    1.87546246753373   -2.65905947643492
C           1.33360964036616    3.20014198198138   -2.92930506779130
C           0.72837964282000    3.81508929393512   -4.01952256838813
C          -0.16976040746687    3.12401776109643   -4.83819240969950
C          -0.48058930521403    1.79742748808517   -4.57117056914455
Br         -0.97510612504540    3.98359900009494   -6.31432335470380
Br          1.14167661087309    5.62262619185970   -4.38230155932541
C           1.49178339029532    0.96870264252726   -1.61090185391780
C           2.45547306757451    1.25612368450186   -0.68509623802909
C           3.11718871756409    2.50221304613636   -0.59983623337671
N           3.68696999537136    3.49099994843735   -0.48496774507692
C           2.95648527501301    0.36759446250229    0.29340000327967
N           3.43126219289990   -0.28362531807555    1.11001082628595
C           0.77535752456774   -0.28951216324519   -1.77789671120726
C           0.80424840607707   -1.34293408972774   -0.91442709194076
C           0.13519686477279   -2.58631802378679   -0.98772211776660
S          -0.86345168823773   -3.23820399957277   -2.27760502081341
C          -1.03221986718149   -4.64731428421259   -1.26297923319519
N          -0.38353494228887   -4.53697019674534   -0.11669917529612
N           0.24919595821184   -3.42723615065206    0.02242215627626
C          -1.79668997814040   -5.78234832761581   -1.63511653026831
C          -1.93268577283968   -6.84834918949546   -0.80382587718000
C          -2.68285990224277   -7.99968095476149   -1.14178147352091
N          -2.85994142724891   -9.06805956045206   -0.30024813684716
C          -2.40415246592777   -9.17900945044346    1.06502804307446
C          -3.27596872017248   -8.36681604551783    2.01911985328336
C          -3.64173848116204  -10.08032428106265   -0.88955680034745
O          -3.93876421876647  -11.11190097793931   -0.33012607565349
C          -3.94251227101783   -9.57264931940573   -2.21271591461328
C          -3.35032183492712   -8.29728941177999   -2.33472635729621
C          -3.66432765409070   -7.78361621566760   -3.65257717084305
O          -3.38539281192633   -6.73941482386156   -4.20540304372883
N          -4.44090162594233   -8.79356218480802   -4.24164426732246
C          -4.91149755925878   -8.67332241066280   -5.60085226642240
C          -4.05202957474067   -9.47712039902919   -6.57336992368652
C          -4.61172419774017   -9.87286292309247   -3.40249168888325
C          -5.35260363967145  -11.01870174081435   -3.75302713132606
C          -5.46171615515152  -12.13588673249113   -2.97472391213708
C          -6.25971679198295  -13.23476129772489   -3.36153906006759
S          -7.48066748086995  -12.97175565621057   -4.56274576080023
C          -8.20712582877283  -14.52296021528894   -4.32962925225037
C          -7.43524207082958  -15.28948312250204   -3.44279951393265
C          -6.32728960002709  -14.56560612244114   -2.88293552093625
C          -5.45398956533508  -15.25650516529442   -2.01180688713898
C          -4.18615768885698  -14.64562859009877   -1.46856694425144
F          -4.41234903921787  -13.80044725213470   -0.46177874133532
F          -3.34863370593260  -15.57994095713333   -0.98890129500106
F          -3.48157163479966  -13.99077412098760   -2.41006785587734
C          -5.71528001103330  -16.56232547207946   -1.65451871362473
C          -6.77541577902626  -17.26917771166037   -2.21724523724962
C          -7.60399376944456  -16.66561891992122   -3.14314914904052
C          -8.51064746173504  -17.49990188859922   -3.83180665275871
N          -9.18074334711256  -18.25135349592497   -4.38222727941003
C          -9.42903291659090  -14.76768198775769   -4.99556771527021
C         -10.51099249480461  -15.50928392899478   -4.62693203272893
C         -11.51652084320504  -15.86316530192135   -5.66775662584625
O         -11.60981234941777  -15.38885141524442   -6.77367033209320
C         -12.32654602698220  -16.93979479794683   -5.06150526431821
C         -11.93230637060488  -17.12880366827081   -3.72400356026128
C         -10.89554515303019  -16.15419563058962   -3.39168665373187
C         -10.51848546795174  -15.79603002012311   -2.12346270254467
C         -10.94663196195149  -16.46128429678476   -0.95591917188171
N         -11.23898066490976  -16.98581725925686    0.02164310380919
C          -9.72751355141522  -14.66755580488903   -1.83596978462373
N          -9.12169193589358  -13.73273503214233   -1.55815661002980
C         -12.52949425942249  -18.11705560917096   -2.96188601164374
C         -13.51644231756682  -18.90133002660522   -3.54818566389993
C         -13.91131575717040  -18.69949646403416   -4.87257491956479
C         -13.31223767166546  -17.70982492099833   -5.64183474344610
Br        -15.26262077033100  -19.77114959425936   -5.63978752645457
Br        -14.32276499441038  -20.26011098287860   -2.51534578275564
H           2.01882742256607    3.76801423761957   -2.32142306974328
H          -1.17370086126930    1.25173710804682   -5.19254739781702
H           1.39529961840138   -1.26089066359233   -0.01023059702418
H          -2.27080638535040   -5.76742563945020   -2.60672097346074
H          -1.44153319745659   -6.81133207624374    0.15764946965075
H          -1.35936707864218   -8.86429575365425    1.12871981450518
H          -2.47200028044718  -10.24043071635196    1.31918660428995
H          -3.25249465778048   -7.30925634063170    1.76563040465392
H          -2.91712891439704   -8.48992837490276    3.03698678965337
H          -4.30509656872399   -8.71460109681794    1.96965291999214
H          -4.84697781614029   -7.61002913266625   -5.84816778709574
H          -5.95877914407412   -8.98342083136576   -5.65551374149459
H          -3.02514114484024   -9.12150854176601   -6.54178394758084
H          -4.42999464905276   -9.35518357895097   -7.58452408373525
H          -4.05889368465779  -10.53518844879185   -6.32089311681966
H          -5.84833090103509  -11.00836083314786   -4.71533040680910
H          -4.94663693451968  -12.16059354219152   -2.02602967537873
H          -5.05825428411638  -17.07149247304324   -0.96758440061147
H          -6.92039382636930  -18.30886539028302   -1.96757717189161
H          -9.53982017464673  -14.27250320567121   -5.95719879395359
H         -12.24288355240278  -18.30493930085737   -1.93970621844455
H         -13.60640963050944  -17.54953615878738   -6.66748653542537
