91
 SCF done       -186.096184205945          0.000876565544
C          -3.78595035761607   -2.30080069759042    6.45896059896775
O          -3.57952589136509   -3.48601815756735    6.36370145947615
C          -5.11381405165976   -1.64562900195453    6.46316690603225
C          -4.96565759903125   -0.25416867868128    6.59148838085506
C          -6.09113164437787    0.55312421007893    6.64078596799604
C          -7.34304203787886   -0.04455810679363    6.55437516435771
C          -7.47933438861849   -1.42857902390006    6.41817611426215
C          -6.35466496213577   -2.24181232808690    6.37357390635654
Br         -9.19518041992898   -2.20862195591149    6.29781233184957
Br         -8.88066346299449    1.05116289077024    6.63168553342834
C          -3.54207174782761    0.06543951587425    6.64309690030115
C          -3.00884375829739    1.32461246033794    6.60168631329038
C          -3.78311960691866    2.50594088341984    6.58254690526799
N          -4.36354432208856    3.49526422965218    6.57087951860312
C          -1.63066692259535    1.62475910277262    6.51653031467762
N          -0.53418366219625    1.94634769529066    6.41186742077063
C          -2.80963700412530   -1.19152442198933    6.64906796138959
C          -1.48218160104520   -1.31509992526282    6.94031331363394
C          -0.68290892327079   -2.47967724465699    6.94131529129139
O          -1.05454493421473   -3.66385065127367    6.43608969912301
C          -0.05779275962236   -4.54570042107867    6.61328406448083
C           1.01208619677781   -3.92659308721642    7.24974056138530
C           0.62229483798885   -2.59698880425889    7.45670608612496
C           1.36053492574085   -1.58183651473416    8.08522531725739
N           1.96502488386306   -0.76278334314233    8.61096170363536
C          -0.25254303508981   -5.88322514490151    6.16230547137468
C           0.62999301426002   -6.88517761488754    6.35785994194950
C           0.37939338475087   -8.21793241863197    5.92221545023344
S           1.44514304326839   -9.55247319992028    6.34362745138437
C           0.31253624102477  -10.56114295143128    5.45705898404200
N          -0.67442222835487   -9.87729514917342    4.95433431911096
N          -0.64100284813060   -8.60422907754010    5.20895424297279
C           0.47288933721261  -11.97693339549683    5.37444839578290
C          -0.34785627931226  -12.75176412475100    4.64595105004459
C          -0.27012884901637  -14.19362891602387    4.60044447508780
C          -0.42061579104987  -14.91918164719185    3.40229600692061
C          -0.60863582879418  -14.26383448646039    2.08900891727591
O          -0.65579110951592  -13.09403914448823    1.85374560601626
S          -0.74183951937290  -15.52123047492399    0.82173241847427
C          -0.43229115826276  -16.86171917043650    1.98229701141973
O          -0.25312028726828  -17.98655079874083    1.62924384312685
C          -0.37056682815713  -16.30706271069739    3.35093784151331
C          -0.20570180432248  -17.11921493746280    4.49778804041301
C          -0.06421869096703  -16.39002726860256    5.69565932457051
C          -0.08993792717438  -14.99527897198632    5.73683604303932
C          -0.05099396948482  -14.59509575326734    7.16716876078803
O          -0.07120441543200  -13.51856257721638    7.67723494785337
O          -0.00395178193546  -15.74850020083601    7.90569116174052
C           0.00157663928980  -16.86164898313040    7.10029377116871
O           0.04720771699734  -17.96116320614532    7.56020369090668
C          -0.28295971515940  -18.54795322598612    4.40493157254347
C           0.40702617318376  -19.42629172675255    5.16726286040444
C           0.22167227038916  -20.83077669438813    5.05305652238183
N           0.95175701640177  -21.75502684412643    5.76087192446402
C           1.99874382945071  -21.47513678526141    6.71358474277262
C           3.32339611725991  -21.15284420091439    6.02619950079222
C           0.57322174634815  -23.07403650077289    5.45526234410039
O           1.08617151582927  -24.05176072760566    5.96053607690007
C          -0.48980193960420  -22.92329392129642    4.48450278489606
C          -0.68445629065364  -21.53304653790832    4.26673300789791
C          -1.77313794419461  -21.37994395660634    3.32699305035119
O          -2.32818711186402  -20.40044446763356    2.87279392863773
N          -2.15205145726582  -22.70111644274602    3.01827996688356
C          -3.17862632146455  -22.96661912166324    2.03940750850723
C          -2.58146386064709  -23.32764175508281    0.68143018605078
C          -1.39815517834034  -23.62317074373462    3.69932205635570
C          -1.58743882734979  -25.04039162401516    3.58338631165062
C          -0.84415749428820  -25.92622411478178    4.25108315221506
H          -6.02627902896789    1.62346049805508    6.75010988991746
H          -6.44485118572935   -3.31224279098612    6.27162850101017
H          -0.93757864507521   -0.43017996032965    7.24702064294152
H           1.94843505509238   -4.36620766624103    7.52518186432120
H          -1.18653336537900   -6.08185866480982    5.65683701516692
H           1.56080586228552   -6.71913051660200    6.88000386826215
H           1.29737168124427  -12.39382223791007    5.93335096393496
H          -1.09555712929084  -12.27718357846586    4.02573086465147
H          -0.93883756164617  -18.93219402202283    3.63309245901654
H           1.14353613935905  -19.08046666530240    5.87488344688967
H           2.11126430154488  -22.38247171150869    7.31373482165028
H           1.68457299085258  -20.65596036681962    7.36607388653431
H           3.64089370585062  -21.99617168147356    5.41773998406214
H           4.08688798465270  -20.95750773401456    6.77403275138205
H           3.22961935521916  -20.27963140347103    5.38403940891177
H          -3.75736885945301  -22.04289610886621    1.95090611978296
H          -3.83715851111942  -23.76059195063092    2.40178189902186
H          -1.97193526548629  -22.50524474292670    0.31513416681127
H          -3.37799832572428  -23.51497041254540   -0.03321802184691
H          -1.95759571580352  -24.21600581612613    0.75316128091814
H          -2.37457342591491  -25.37618678262052    2.92264026148087
H          -0.05264662594517  -25.61523057272154    4.91265411807355
H          -1.01113377028554  -26.98422201995359    4.14506740704021
