104
 SCF done       -223.000765608521          0.000846612602
C          -0.53763650044882    1.01932872338764    0.14340107134786
O          -0.27034234881535    0.47870164149701    1.18659795641633
C          -0.74954338842676    2.47013542117519   -0.05406083611794
C          -1.07985847386493    2.73492926143091   -1.39390279012878
C          -1.33959258283250    4.03869544447049   -1.78866928275732
C          -1.25820461563439    5.05136868953671   -0.84052965043766
C          -0.92225401285588    4.77719836180582    0.48886398310911
C          -0.66773532206269    3.47291115525312    0.89037440271634
Br         -0.81529967872453    6.17399082428459    1.75455556859419
Br         -1.61625443694895    6.82661844462096   -1.37848538089544
C          -1.07461657264565    1.48109293564614   -2.14055501633108
C          -1.23066508122136    1.36422157648037   -3.49309387111857
C          -1.47464822548465    2.45826684436877   -4.35460291469104
N          -1.68017244147910    3.30517310419451   -5.09991672694579
C          -1.13935109722033    0.16517498315280   -4.23644128097173
N          -1.06022118629534   -0.74947497460911   -4.92418397314765
C          -0.79753371576198    0.40399438190093   -1.19498693544550
C          -0.89958736543092   -0.92045858068580   -1.47269390498091
C          -0.60026300463528   -2.02921468329252   -0.62940211106311
O           0.13319527216490   -1.92991024665810    0.50918580557798
C           0.19778498693878   -3.17710623906046    0.99827970756252
C          -0.52359922025990   -4.02654026959492    0.09793865949529
N          -0.98990426645690   -3.24419840892530   -0.91108428877691
C          -0.66259286061043   -5.39028904002252    0.32075527565072
C          -0.05105908201448   -5.84790563698876    1.47464122324499
C           0.66992247449707   -4.97745831973042    2.35396008138050
C           0.82153170664630   -3.62141188992860    2.14812816837522
O           1.12869673341502   -5.72502316169943    3.37112371370380
C           0.69192791961822   -6.98754030138865    3.10722696728935
N           0.00314380646070   -7.10438692568810    2.00977862620288
C           1.01886192395932   -8.00197411456746    4.05622025775253
N           0.58315009193314   -9.29658337389497    4.00489396709442
C          -0.19744440377937   -9.90705619987859    2.95533356983081
C           0.67809618298030  -10.29764646477987    1.76913476560751
C           1.03962525747161  -10.03390627964366    5.11564199085089
O           0.75029590902223  -11.19486980281433    5.31754813833537
C           1.83016356040798   -9.08797600074990    5.87534976151687
C           1.78685640507676   -7.84122064967325    5.20023039572057
C           2.56711860299759   -6.88474545832751    5.96436031000272
O           2.82902403342308   -5.71780824561084    5.79737415140708
N           3.03994784959864   -7.63963500483444    7.06316131562795
C           3.80965594544179   -7.01583006121698    8.11322139550625
C           2.95154572773481   -6.70529953370692    9.33706081371695
C           2.60895238014916   -8.93909045765889    7.01981683148560
C           2.94848796221796   -9.91654172220092    7.99812979220181
C           2.54116370972257  -11.19940872194849    7.90090827861386
C           2.82375740192721  -12.22551560964055    8.86943978515308
C           3.16008585915855  -13.53643820175387    8.47412474509889
C           3.40342684479832  -13.88969936496745    7.05867038434315
O           3.45100671581907  -13.15867200828104    6.11809002499619
S           3.71940704806112  -15.65225621150684    6.94814170823522
C           3.66129540436351  -15.87465694650175    8.72295594069657
O           3.84408002974035  -16.93683906026514    9.23852020375511
C           3.36715644026650  -14.57466942585850    9.37486577769104
C           3.27526643383806  -14.40179121238297   10.77549446986939
C           2.97874710234342  -13.08483592430593   11.17256477152250
C           2.75715010483284  -12.05132924630988   10.26150464695831
C           2.40141267312926  -10.84266179565692   11.04357450657053
O           2.05311832168626   -9.75819749245038   10.69285949794318
O           2.52423399378378  -11.17012952484132   12.36968865138220
C           2.89015181574283  -12.47994930090988   12.52936675396193
O           3.10446630588390  -12.93964883439328   13.60838255990357
C           3.48214113835197  -15.51109329152403   11.67091392940769
C           2.87131496807672  -15.67212983820502   12.86365868700434
C           3.10574372333193  -16.80658512051977   13.68669803708322
C           2.45066928986630  -17.11685121858439   14.83418484958997
C           3.04897469483518  -18.10174412555231   15.78450562159559
O           3.92932056183109  -18.89105477705081   15.55095667496093
C           2.36872834958224  -17.84499076023021   17.07150227657376
C           1.35180223164176  -16.88878790302787   16.88648785464516
C           1.28145163680778  -16.53513158483083   15.46954445913127
C           0.20811594027429  -15.95193973146501   14.85607464083992
C           0.03969493397927  -15.82552268909004   13.45896918858408
N          -0.18198471707697  -15.72415773784386   12.33793359449094
C          -0.92937281460476  -15.48392233837517   15.55287384749312
N          -1.86744575771264  -15.07883316270239   16.07311879272378
C           0.60800550608926  -16.45715925810255   17.97205178562024
C           0.88291165834740  -16.99575911925260   19.22384245904800
C           1.88311492064620  -17.95726724262819   19.39598426185557
C           2.63779557781332  -18.38649245506274   18.31186427728520
Br          2.22730432916591  -18.67866773930684   21.10646323345160
Br         -0.12135944602909  -16.39940467968060   20.70772187577826
H          -1.60634087228165    4.29001947809982   -2.80219403659394
H          -0.41086741797739    3.24473787491244    1.91326889125513
H          -1.27598373737250   -1.24014541870721   -2.43527238574268
H          -1.20600812266566   -6.03378207420239   -0.34762511216053
H           1.35954660619678   -2.97736970132521    2.82081194927323
H          -0.96837349361631   -9.20463557158042    2.63468578362376
H          -0.65452132305014  -10.79779835322076    3.39396080662609
H           1.11427497200318   -9.41059085766985    1.31806992660005
H           0.07437229484924  -10.80585132602214    1.02344902747930
H           1.47284248013796  -10.96629863058574    2.09108845097818
H           4.19558366094923   -6.08502413186037    7.68769543455257
H           4.65471305872902   -7.65677409642757    8.37923857917179
H           2.13721497964068   -6.04133548816227    9.05804621976002
H           3.55731137816080   -6.21046547837838   10.09104430504803
H           2.52949248082557   -7.61116377607234    9.76524795149998
H           3.57945861454022   -9.60097418685758    8.81478879405130
H           1.98972161723751  -11.51475866981459    7.02178968668335
H           4.10797576534406  -16.31033015143074   11.29771137905625
H           2.18939633583028  -14.92458307441205   13.23161741332738
H           3.93687938112026  -17.45311507853577   13.42621242853419
H          -0.16473377454391  -15.71130671138573   17.87754480627523
H           3.41620733692809  -19.12356066776075   18.43440694236955
