109
 SCF done       -214.997089781302          0.000683951163
C          -3.26716392043786   -3.35208291019522   -4.13293878112056
O          -3.25681585442035   -4.48164947254124   -3.68843435651887
C          -4.14155506080301   -2.83582761948758   -5.20356159149987
C          -3.87777043773587   -1.46911432526009   -5.40908639181531
C          -4.57785253128807   -0.77617380242201   -6.38274194699241
C          -5.53170580981518   -1.45870937732745   -7.12978447869921
C          -5.79254167112484   -2.81409249859391   -6.91104377787787
C          -5.09135810780945   -3.51484910396376   -5.93850533936486
Br         -7.10056039816496   -3.71257486056145   -7.93553105701564
Br         -6.48261156159632   -0.51489372865591   -8.46206637276571
C          -2.85331061284067   -1.03869162972123   -4.46005902941596
C          -2.47144209240570    0.25345025718514   -4.22806341550028
C          -2.95057147243081    1.35715771308418   -4.96760947248599
N          -3.30172469836955    2.28402248150025   -5.54504575657187
C          -1.61884827785781    0.67393592887577   -3.18141457944091
N          -0.98791784422070    1.10230881445690   -2.32471573259767
C          -2.40679383489548   -2.22135167122750   -3.74286720486110
C          -1.30094718862699   -2.30552311371221   -2.94507355372372
C          -0.81487402415955   -3.40095120430439   -2.20466073086672
S          -1.57441242382140   -4.96575130186340   -1.94535412932368
C           0.37377004181454   -3.34951007962669   -1.48757584707977
C           1.47760929991924   -2.38655179529441   -1.29623921898661
O           1.65322084714073   -1.30306626440988   -1.79008749250915
N           2.34517611556452   -3.02054448946249   -0.41271820945935
C           3.55239213717015   -2.39522288806864    0.08638782175955
C           3.25197666772267   -1.48888313224081    1.27470037823458
C           1.92693217499065   -4.28992460612814   -0.02823244159729
O           2.51901330145923   -5.02275410702753    0.72463791578732
C           0.65562642910259   -4.49518323880047   -0.74394855285470
C          -0.30399086346265   -5.48994273193765   -0.86023545729970
C          -0.26922291950975   -6.73889166609082   -0.19899973610105
C          -1.22031212716230   -7.69777060312031   -0.35708819859546
C          -1.33352702560970   -8.96572405490549    0.25991110785461
N          -0.53834196129027   -9.57746684509806    1.19961344944022
C           0.64112532131120   -9.06969822634892    1.86017665147242
C           0.29481589839803   -8.06367202328909    2.95514038134645
C          -1.04757842405237  -10.84577654490680    1.57113754372731
O          -0.51929579981047  -11.56121395230932    2.39311712909900
C          -2.23681089170837  -11.00474861639938    0.76206755088948
C          -2.38103376403066   -9.85038423245784   -0.02330354407780
C          -3.57742932078230  -10.00512186803584   -0.82530226138567
O          -4.10546261981887   -9.28363051102895   -1.64109796413365
N          -4.08965083125311  -11.26867996988399   -0.44961924500932
C          -5.26751435572995  -11.77719872244493   -1.11189715606968
C          -4.92007951207896  -12.82076978710238   -2.17067073900280
C          -3.30219620839489  -11.87842932150789    0.49916875941720
C          -3.45998143968545  -13.09927360733087    1.18918588850984
C          -4.45973538753911  -14.02119422405300    1.09375403964114
C          -4.60300075644237  -15.17365473398694    1.90933412977463
C          -5.61225903864475  -16.11096625770303    1.55137789299338
C          -5.71814908660012  -17.37924606366317    2.19883705192083
N          -6.72135174716322  -18.21528023745232    1.87316278417615
C          -7.51999812400377  -17.88661275402688    0.89487636265380
C          -7.35639961287422  -16.67828488275110    0.19196337088081
N          -6.45225144026566  -15.80645423551533    0.54512774740541
C          -4.78586556938754  -17.75496423507895    3.19938119038959
C          -3.89180319248707  -16.76253967356779    3.66863055692822
C          -3.79966697411757  -15.48158670565857    3.04121775500257
N          -2.93350406159182  -14.57360701263454    3.52379626213533
C          -2.13132020666518  -14.91246694000943    4.49347810447311
C          -2.19624320154673  -16.19190512940241    5.08269893133396
N          -3.07639844988767  -17.07141452853252    4.69640330895421
C          -4.75555535618503  -19.04860798386281    3.78371820660094
C          -5.21048130148905  -20.22552355770116    3.27233764390406
C          -5.54079368650330  -21.34940796527875    4.18949845037115
O          -5.24898329149020  -21.45545510384727    5.35585687349044
C          -6.35359096477386  -22.27953595153366    3.37071071592305
C          -6.38576813633684  -21.82623019971011    2.03904900894867
C          -5.55822131503031  -20.62694727656041    1.92679442974674
C          -5.02533620636078  -20.14484634440743    0.75969990339426
C          -4.07434650307898  -19.10740665131812    0.70311247168293
N          -3.29684398668689  -18.26879798310768    0.60032184104169
C          -5.36334565802156  -20.63199794542624   -0.51851074106980
N          -5.62656171695594  -20.97479392222595   -1.58187758430656
C          -7.12150384353478  -22.51872051678601    1.09298545808724
C          -7.81063281916004  -23.65879204794079    1.49113789587663
C          -7.76115324863443  -24.11118313100409    2.81136943113505
C          -7.02662170659915  -23.41690599701691    3.76484775063278
Br         -8.69792422432665  -25.67053774049007    3.32448582791364
Br         -8.83248929901120  -24.59280438991149    0.20364076778906
H          -4.40337059657701    0.26889409994177   -6.58118050121187
H          -5.28209997788237   -4.56163697333047   -5.75933119652968
H          -0.66898208802749   -1.42793568941839   -2.85343910580707
H           3.98658012948913   -1.81472569871054   -0.73121232981789
H           4.23460815857996   -3.19749565546142    0.37659998318566
H           2.56268009523841   -0.70118761534296    0.97986990343728
H           4.17159008660639   -1.03309188628705    1.62983162725288
H           2.80971412914019   -2.06298384544628    2.08586135215079
H           0.58149576859980   -6.86522348393231    0.45324786417968
H          -2.03215616694428   -7.49508163756321   -1.04727316999075
H           1.32347162726926   -8.64120273484415    1.12307194938573
H           1.12416100049202   -9.94147709867216    2.31210006097607
H          -0.29013197841833   -7.23595425316550    2.56104345643001
H           1.20839404079352   -7.66831663779349    3.38963805551476
H          -0.28189079067412   -8.55213592677705    3.73682435927305
H          -5.72882878654364  -10.91093044020985   -1.59645771034983
H          -5.96567893554158  -12.17374429696503   -0.37119217127444
H          -4.29922657284456  -12.37119530056075   -2.94183652870003
H          -5.83089564226242  -13.19181343132825   -2.63197396378120
H          -4.38017791612837  -13.65980086257028   -1.73846703294973
H          -2.67191840872668  -13.28022401371627    1.90926747626158
H          -5.23806359308296  -13.93822169143226    0.35050683830489
H          -8.33198143971732  -18.56687218339002    0.67759433055766
H          -8.00701488757785  -16.40498033313855   -0.62657612016071
H          -1.45725866921115  -14.14791101638216    4.85277274289076
H          -1.56378261042119  -16.46806456398007    5.91484172691361
H          -4.38082107759993  -19.08280423865035    4.80199573101462
H          -7.18313646453030  -22.19517585681856    0.06626082623259
H          -6.98494066736761  -23.75640910159862    4.78820289227588
