87
 SCF done       -196.398533862557          0.000426022611
C          -8.43194619251125   -5.34327262747977    4.17580877120778
O          -7.31762666269863   -5.12182013247718    4.56968606347764
C          -9.60093972247890   -4.44182264587456    4.29604278545324
C         -10.75447820772401   -5.07008541352157    3.79525469908546
C         -11.97004876311445   -4.40370518007202    3.83452037181012
C         -12.00983198777569   -3.12091750282228    4.36694408798447
C         -10.85578797385225   -2.50270134786298    4.85857595514284
C          -9.63802382307605   -3.16907762464097    4.82806353776299
Br        -10.94068750899881   -0.75828158719778    5.57409632114376
Br        -13.66564635513278   -2.21418886643031    4.42440437413964
C         -10.39831643493143   -6.39586468058370    3.30195012403368
C         -11.23394271702844   -7.25014302194503    2.63842736398346
C         -12.59564920285003   -6.97768428092740    2.37466525605665
N         -13.70525694944563   -6.81315718601481    2.13643791704012
C         -10.86420710714860   -8.50399807485859    2.10127690742116
N         -10.64318129506429   -9.52549203797507    1.62835938413521
C          -8.97938712483039   -6.59882231798145    3.56849132032935
C          -8.30910717174450   -7.76824264123761    3.43729320504459
C          -6.90156431441514   -7.96027099666237    3.57323530415074
O          -6.46893720561449   -9.24505302229273    3.79077593246230
C          -5.12737152066971   -9.15720136100577    3.81347342290634
C          -4.78592356022301   -7.78822019357688    3.58087352435474
N          -5.94638336566324   -7.09360850297374    3.43909850745406
C          -3.46821155755110   -7.35321254975968    3.52516759214737
C          -2.53110220201387   -8.34917907639144    3.72295068207893
C          -2.89518896556918   -9.70599505037181    3.96114506548572
C          -4.19763925642110  -10.15923839523287    4.01565337590309
O          -1.75275660392334  -10.41462127704049    4.10104357316225
C          -0.75302930170381   -9.51666498234785    3.94420218180770
N          -1.16051791713833   -8.30040720778405    3.72532236158448
C           0.60447038843630   -9.98548790027493    3.99253895627696
C           0.90609325930859  -11.36187666787678    4.00059106644367
C           2.25127530359502  -11.60904572976064    4.06585327954705
S           2.98675575882463  -13.18002785954261    4.06592077374751
C           4.73330868471419  -12.73828026529173    4.27305520667565
S           3.16555081392243  -10.14141002654485    4.17410707002981
C           1.73658447927881   -9.17987013303048    4.09718654523619
C           1.75061686725725   -7.73915251316139    4.11177760511694
C           2.47927107400285   -6.91192069002918    4.98369967862095
C           3.41171325668020   -7.40766222933758    6.00963347726351
O           3.68812413565659   -8.53916078887718    6.28245855119961
S           4.12580843150184   -6.01669638062841    6.89013383092840
C           3.17912171637960   -4.82393922800427    5.96563719322225
O           3.27790389871947   -3.64388570370130    6.15972839972551
C           2.32181898072803   -5.51832592829217    4.98816413093978
C           1.38290814294344   -4.85014342409180    4.18440941116605
C           0.69890435439909   -5.67784731479764    3.27923789551962
C           0.92100693587609   -7.04420320248409    3.21845498640536
C           0.20702669086164   -7.56265676486610    2.01920615881151
O           0.32804693617669   -8.59342002220250    1.43128905831527
O          -0.52541988871648   -6.51275018132332    1.51799806094210
C          -0.26805829754990   -5.35367508694394    2.19744762175494
O          -0.77190550961474   -4.31564662269287    1.89646070194773
C           1.17065379322464   -3.42417348762335    4.30929866572709
C          -0.03138136410987   -2.82791624981546    4.28918695501589
C          -0.20759064696517   -1.41448053756182    4.46610888330516
C           0.45500865497868   -0.58588584623494    5.30180158931794
C           0.36897614734032    0.89255871168125    5.09142130211163
O          -0.42432005251817    1.47896557322979    4.39902057527984
C           1.49612824551011    1.45163361482000    5.86578960808336
C           2.11513215311532    0.42610814526417    6.60520583759947
C           1.38707428378554   -0.82287458547083    6.39801912523474
C           1.42759136772188   -1.89612442101642    7.23872509482783
C           0.61325888296449   -3.04309597858866    7.13410495667326
N          -0.01271691244407   -4.00469180993594    7.12972120150609
C           2.26759575263310   -1.97102433461825    8.37407648221360
N           2.91369373252277   -2.07410961799865    9.31532742934997
C           3.23395536621572    0.70719483722810    7.37207792507584
C           3.70623824631968    2.01360319748481    7.40332462797644
C           3.07221501971582    3.03160665276847    6.68419172392390
C           1.95924062012523    2.75163232218164    5.90275621556438
Br          3.72761695148233    4.80139118391152    6.75866964934974
Br          5.23747341083728    2.40068080232514    8.43873686589361
H         -12.88181781597047   -4.84955772556914    3.47150635552614
H          -8.73996843115216   -2.70666666265976    5.20743541684879
H          -8.84616681425812   -8.68114669154294    3.21357884603306
H          -3.21255098764118   -6.32529636566673    3.34061533391685
H          -4.46058137851158  -11.18764003977998    4.19099795095963
H           0.16178744393410  -12.13416000298062    3.95123950852096
H           5.28041044669728  -13.67286287183356    4.34248980751863
H           4.85443081889711  -12.16051181719093    5.18513751263679
H           5.06872429305904  -12.16950636258354    3.41063944255507
H           2.05553288877941   -2.82984451700860    4.49413199019255
H          -0.92644517712411   -3.39710415981163    4.08553509056260
H          -0.93797538404619   -0.94167765133737    3.81599088592609
H           3.75133991114095   -0.05861875004342    7.92731832256594
H           1.46844108914482    3.52837989705223    5.33706919328779
