86
 SCF done       -189.947287085124          0.000820582599
C           1.28804995788691   -1.46914421974617    2.41939135870876
O           0.71048394498185   -1.66577621205168    1.38171713611354
C           2.11933007575748   -0.28822307697925    2.75083921948661
C           2.56644945274047   -0.36796447003207    4.08096843967043
C           3.34509462488577    0.65254461588272    4.60499118627255
C           3.66675618506947    1.73051596330740    3.78922993224653
C           3.22106548216590    1.79824664358983    2.46611436759233
C           2.43560979315672    0.78164554668037    1.93909288643830
Br          3.67702777411526    3.27486390056876    1.38105260876733
Br          4.72308705368004    3.12492440661723    4.50372704959016
C           2.07297537425942   -1.60627658963409    4.67485300073470
C           2.39828650470741   -2.08103675883707    5.91577623373900
C           3.23516180235024   -1.40001472140649    6.82770260970073
N           3.90309652310049   -0.89070038038211    7.60893858415655
C           1.97076787688483   -3.31596409416132    6.45239174598732
N           1.67345957152264   -4.30547565450950    6.95206959675314
C           1.24695621094577   -2.27185018343079    3.67894163117442
C           0.43578844560616   -3.33767228220975    3.90225313054771
C          -0.28487134373384   -4.06105467791112    2.91503726564652
S          -1.73645522783928   -4.97429045264253    3.35220089465565
C          -1.77867272201698   -5.45427475855277    1.66599237877654
N          -0.77383998850433   -4.96437963133612    0.98444029863512
N           0.02736918681614   -4.21087538261919    1.66117665519701
C          -2.81489938697323   -6.27182934539257    1.13742616180837
C          -2.83776574985790   -6.65631196905821   -0.15676451937412
C          -3.87732744878060   -7.44942400903662   -0.74651937024457
C          -3.80794632536959   -7.83963905311805   -2.07919865416317
C          -4.79794789525327   -8.59233834342637   -2.71224997476405
C          -5.93182068476698   -9.01709192406821   -2.04643959158484
C          -6.03969414744228   -8.64612174622079   -0.69172684406439
C          -5.03052466070945   -7.87504448705733   -0.04426064463534
N          -5.43947349030357   -7.68621097829811    1.22005206099329
N          -6.58890154667042   -8.29436410349291    1.28928939745610
N          -7.01295630000095   -8.87675238641449    0.20333927990923
C          -7.33343626021373   -8.34596134797712    2.50910420139766
C          -7.01047854521516   -9.78097112082273   -2.65581864623651
C          -7.55266970482818  -10.92657055815855   -2.04977043966878
C          -6.93099571624567  -11.59766992730775   -0.88882956125544
O          -5.86531603130178  -11.40095677996856   -0.39450923217423
S          -8.02537644438326  -12.91600308338557   -0.33308025284833
C          -9.14401231368181  -12.69615630454759   -1.69709944117883
O         -10.11499283555120  -13.38339092482632   -1.85194406521284
C          -8.68991048604368  -11.56665501649364   -2.53758552510447
C          -9.33609523519834  -11.16915604632488   -3.72514630777949
C          -8.76966982240422  -10.04855597014480   -4.34552113071588
C          -7.66561904704114   -9.37704460888089   -3.82207823743833
C          -7.44182034621305   -8.16953179153151   -4.65682045028520
O          -6.63133394958595   -7.30348904360495   -4.56611241855858
O          -8.41112205735246   -8.17366432295030   -5.63179917842099
C          -9.24304169842714   -9.25679067972089   -5.51276538986140
O         -10.16691185404884   -9.43136380645015   -6.24367669877529
C         -10.47864712670239  -11.90010658850835   -4.22969837160513
C         -10.68121463137668  -12.20367621613823   -5.52082804940366
C         -11.79796446389344  -12.98178201989239   -5.97778866993377
C         -12.36210144200551  -14.06089479579759   -5.39497349865504
C         -13.71574238771464  -14.51365320481298   -5.84664533538834
O         -14.28896767157001  -14.18001239870660   -6.85251624419553
C         -14.19878375702788  -15.39717432993616   -4.76635982619426
C         -13.17261738275326  -15.59328527249521   -3.82264431868219
C         -11.96659604811701  -14.90284021588073   -4.27185914150964
C         -10.70102547203523  -15.19242452590819   -3.85350864837709
C          -9.52023924387962  -14.63517454957487   -4.38677722502133
N          -8.51342877134737  -14.23291290274651   -4.76254629511073
C         -10.40596563336648  -16.14330050189031   -2.84862407123651
N         -10.11239491370013  -16.91484124276899   -2.05334925793972
C         -13.41412593953905  -16.35123284398247   -2.68856423098882
C         -14.67273651065290  -16.91652468986770   -2.52313730060764
C         -15.68044189550042  -16.73559957992104   -3.47622354944791
C         -15.44687358617077  -15.96561962331189   -4.60784752078175
Br        -17.37757265682541  -17.52722159667410   -3.23208394213763
Br        -15.00999932833012  -17.94026283406521   -0.97261857799463
H           3.70174130766869    0.63862919604330    5.62212261927130
H           2.08077963143971    0.82202024074578    0.92088253345726
H           0.28691051200920   -3.68756835110946    4.91573078384176
H          -3.60173463695698   -6.57436868539944    1.81184134519577
H          -2.02923084955278   -6.34825567397823   -0.80542098436462
H          -2.94419209014587   -7.54472384944097   -2.65558892287104
H          -4.65825234536234   -8.86895095421945   -3.74531327717693
H          -6.93949016388620   -7.58864916154149    3.18281867290001
H          -7.23026136931076   -9.33186376454635    2.96622100489664
H          -8.38633475054758   -8.16421605693185    2.29896646863113
H         -11.16400629021986  -12.27567529111167   -3.48168740877448
H         -10.02047289359929  -11.82679618915523   -6.28800608573174
H         -12.27659370806827  -12.63524842848832   -6.88920246528538
H         -12.66170710435625  -16.49848979398901   -1.93052925956437
H         -16.22029296145272  -15.81240115602971   -5.34444368789627
