85
 SCF done       -184.906116992584          0.000810962756
C           0.88357868360751  -11.44251193845171   -5.65778909291749
O           0.64637655217906  -10.65449133624504   -4.76704087600711
C           2.08669514929208  -11.45265582404222   -6.51139222019543
C           2.01894535342658  -12.52920026916853   -7.41311363973467
C           3.04824120281448  -12.72348248071969   -8.32081638759200
C           4.12432804922420  -11.84351695796985   -8.30828617838579
C           4.18299674448461  -10.77955222629318   -7.40352605613384
C           3.15395206777576  -10.57823824123197   -6.49372693025121
Br          5.65902496680558   -9.60139622821791   -7.40737996274107
Br          5.52508642807774  -12.10903327139461   -9.54820772137129
C           0.78116879822158  -13.26921061828933   -7.17767660409681
C           0.41815642475456  -14.42165463820654   -7.81592583605717
C           1.19436100354955  -15.04194586271961   -8.82155997548198
N           1.77947672209005  -15.58876787004386   -9.64235070068796
C          -0.74913042468672  -15.18014157098098   -7.56898191704084
N          -1.65718113641756  -15.86807200452698   -7.43410130602125
C           0.05206769610394  -12.57317195384504   -6.12344871826115
C          -1.19960318223747  -12.88464089536681   -5.68593338262976
C          -1.98429290567269  -12.27765405546298   -4.67819925005483
S          -1.57018131219713  -10.94975822253503   -3.60127788715498
C          -3.16472285492553  -11.16873235607768   -2.92500457679378
N          -3.83944532737737  -12.13595440414871   -3.50864350350733
N          -3.19667032932199  -12.73397023734396   -4.45220491273714
C          -3.70583656381588  -10.40411688738883   -1.85201185717887
C          -3.02557198053400   -9.43422328258583   -1.21365148878748
C          -3.52157421349454   -8.65829847939681   -0.09812243430364
C          -2.69186381598748   -7.89185240118315    0.62798378924394
C          -4.93763266084097   -8.71361420750346    0.25906087199831
S          -6.19816273398496   -8.49480443793042   -0.92063011048476
C          -7.42705533133658   -8.62893376132817    0.27735164807662
C          -8.85321478970777   -8.48427680272354   -0.10813094686224
C          -6.88310472662337   -8.82033093513435    1.52536952525945
C          -5.46204024635582   -8.84591186956222    1.50490486002616
C          -7.63736999382396   -8.94792744976364    2.76013109443231
C          -8.63514913378346   -9.91245259653092    2.98177887459007
C          -8.93954467242764  -10.99002971946046    2.01536385561038
O          -8.41809742513527  -11.21458851637631    0.96621084635937
S         -10.24749499399116  -12.02092658271008    2.68200303861452
C         -10.36194004120010  -11.07341179573933    4.19510005674790
O         -11.15492966312119  -11.33398590364586    5.05013089962547
C          -9.34979318029798   -9.99059557465073    4.17721914867558
C          -9.13034382051871   -9.11474229189347    5.26311653687004
C          -8.09551612454234   -8.18558120742314    5.05417656091353
C          -7.38655118927028   -8.11646763889904    3.85748590140624
C          -6.39977238550456   -7.01556346981885    3.98045151946211
O          -5.62986259500852   -6.56807289621485    3.19137994257446
O          -6.51179308907708   -6.52418161271111    5.25984672807531
C          -7.48791221427654   -7.17628471723445    5.96449893325883
O          -7.71589166854605   -6.91792113040485    7.10582277696739
C          -9.92148283317151   -9.21360387538427    6.46473037419763
C         -10.28617710882131   -8.17246965215162    7.24011073582685
C         -11.13243574176863   -8.34096128049556    8.37101938675487
C         -11.73689616243167   -7.35747645036384    9.08287196264479
C         -12.29707174162129   -7.66001138258363   10.43417672726035
O         -12.52167878169365   -8.74984754147538   10.89695921028143
C         -12.45358182073187   -6.34107087570884   11.08206367121290
C         -12.14463951551157   -5.32169952806797   10.16092368582987
C         -11.84239274723875   -5.92553844049832    8.86390085876190
C         -11.86972141271169   -5.26996569608761    7.66442827412909
C         -11.81824512802479   -5.88752287818193    6.39485694965107
N         -11.81925357988960   -6.31644164021856    5.33049138923940
C         -12.05543984090186   -3.87361193644649    7.54301946772218
N         -12.19410358286113   -2.74576525318350    7.39081442082829
C         -12.18156128383221   -3.99722444539573   10.56442828720258
C         -12.53796347790895   -3.71050394596536   11.87725553404488
C         -12.85999225793394   -4.72811489355436   12.78046593984267
C         -12.81532380127120   -6.05823219366976   12.38327329824675
Br        -13.35276049908522   -4.30840101175565   14.55395276573081
Br        -12.57866782212327   -1.90583831741435   12.43189973128120
H           3.04026579215451  -13.53026687829672   -9.03527971699104
H           3.18444344839431   -9.76025020524011   -5.79074350128308
H          -1.72457730252811  -13.70975463956923   -6.15210318882141
H          -4.71251035127596  -10.67768493654270   -1.57047700453464
H          -2.00702090844491   -9.22020252242932   -1.51292688649901
H          -1.63984208352598   -7.83922361029098    0.40650189779961
H          -3.05188838445602   -7.30751286696488    1.45639901288321
H          -8.97250936438218   -7.67971396593010   -0.83122621329385
H          -9.47362081101643   -8.27507906197079    0.76119043592372
H          -9.20580658827208   -9.40712070983516   -0.57177560252890
H          -4.86239578645467   -9.01389153502581    2.38062574988629
H         -10.33181534236154  -10.19008294146331    6.68347848910660
H          -9.94428891782385   -7.17572707158046    7.01622750623378
H         -11.27074834500684   -9.34905805895383    8.74733980702415
H         -11.93196303886698   -3.18742526492606    9.89789219597652
H         -13.05597199260699   -6.85223486127448   13.07312141372320
