107
 SCF done       -225.440746576720          0.000621161293
C           2.33437289120734   -0.75990456453880   -0.64823157820175
O           2.80452639638971   -1.79121833970902   -0.22949311260872
C           3.02100350186996    0.54229254955944   -0.75008738083401
C           2.25083302328255    1.42863871251248   -1.52343902545371
C           2.71667880884174    2.71238198053156   -1.76026939818667
C           3.93837128685266    3.08858700789590   -1.21514607285039
C           4.69508779136517    2.20005960475727   -0.44689546109118
C           4.23821900853367    0.90976334172936   -0.21561129472521
Br          6.34900788197053    2.74140860588644    0.28462673143104
Br          4.57255793063248    4.83909257778674   -1.53501187982190
C           1.01972090963240    0.75942549056133   -1.93548818513499
C           0.02046766454239    1.31835008197515   -2.68570468772003
C           0.06445116791506    2.62694684820581   -3.21438832554398
N           0.04736103914199    3.67717427003786   -3.67550817537441
C          -1.18452760361426    0.67404983932178   -3.04011914692470
N          -2.18745444147714    0.21669878156294   -3.36003475855042
C           1.02683718156038   -0.56526915786980   -1.34303482050781
C           0.07392027152573   -1.52895399166032   -1.46066111644038
C           0.01429477687217   -2.67107486418960   -0.61984098503515
S          -0.68225009729043   -4.18409482071323   -1.16803173769891
C           0.36757767150644   -2.78546783837209    0.70610188189946
C           0.86156971535501   -1.90032320990508    1.78154746005970
O           1.12095369978385   -0.72169115702818    1.76126163331431
N           0.92605309841683   -2.71179062168518    2.90184534081363
C           1.43885545641328   -2.25204061085748    4.17528934174229
C           2.95454176726158   -2.40257807593500    4.23780582886819
C           0.49897858816447   -4.02070808097732    2.68107504395473
O           0.46092814068120   -4.88603619002600    3.51858648136225
C           0.11069967254359   -4.04966050185118    1.26279360284841
C          -0.44682136436573   -4.96128735037565    0.38625927318307
C          -0.78089672298791   -6.30760841989421    0.65647795212217
C          -1.32940770365704   -7.14689360728458   -0.25692157424567
C          -1.67558322177278   -8.49835091768725   -0.01907886810074
S          -2.28579198817880   -9.47259196320739   -1.32300763746188
C          -2.45981076067595  -10.86106145762974   -0.30335810223766
C          -2.05723209938985  -10.56812865753242    0.99534607737613
C          -1.61919161249258   -9.23561263896171    1.16436505565688
O          -1.20529158124929   -8.68166948460395    2.32902525493479
C          -1.71127402118528   -9.26352251894400    3.52331599352887
C          -0.97514640625831  -10.53949789432191    3.94445700293403
C          -0.83117760672455  -11.48076775840698    2.75197421032323
S          -0.51633467396860  -13.18736183481128    3.30127617802504
C           0.00436530407219  -13.89145192953475    1.71152294440130
O          -2.00508368811199  -11.52852777671247    1.95557889889200
C          -2.88121072757362  -12.11269976960256   -0.82165076250945
C          -3.31916109652785  -13.14131346243117   -0.06217034012953
C          -3.65311447808375  -14.42976826182066   -0.60366703258813
C          -4.77904910882713  -15.16858400866382   -0.18431938383868
C          -5.71431793887452  -14.67916194122327    0.84452369394023
O          -5.68447772213616  -13.64959892526493    1.44647850417690
S          -7.01429318065899  -15.90447892743773    1.08092746595512
C          -6.35275058293491  -16.98809850850275   -0.16289514502996
O          -6.87743328706530  -18.02657580812690   -0.45686442816897
C          -5.12318270380570  -16.39978290370719   -0.73828176322008
C          -4.35539308668738  -17.02989570475669   -1.73818683997972
C          -3.22328645612386  -16.30730828386303   -2.13762804774163
C          -2.88729975168044  -15.06922761479177   -1.59280609520302
C          -1.57683487851361  -14.68051115261533   -2.16461979070594
O          -0.84043616149276  -13.78542133459361   -1.88388440086095
O          -1.25965905068598  -15.61654207802636   -3.11818685097363
C          -2.20546790187091  -16.60873530355945   -3.17901026893858
O          -2.14630026176476  -17.49199385532872   -3.97552025887509
C          -4.72136665772042  -18.33781089057957   -2.23886346791360
C          -3.85421406692340  -19.33083904973709   -2.48640483008796
C          -4.25748603719957  -20.64237885095450   -2.91122877689597
C          -5.29747397569535  -21.37987659395887   -2.46905654938616
C          -5.73944374491455  -22.57451076099306   -3.25465732464759
O          -5.13070038999575  -23.12080274094999   -4.13964544549004
C          -7.08938713884261  -22.88563527023394   -2.74334358346398
C          -7.38217440156167  -22.05395111133957   -1.64564644314010
C          -6.22191177245908  -21.21677804209725   -1.35292498148695
C          -5.98180213961908  -20.60739013590879   -0.15652825583040
C          -4.79307829542533  -19.93236544921907    0.19073192172885
N          -3.86208792158566  -19.37209780734461    0.55970495552800
C          -6.89032071486438  -20.62354732425550    0.92763599520677
N          -7.58480079110650  -20.61917741737436    1.83939178693789
C          -8.62112237943959  -22.13419077700055   -1.03109317019108
C          -9.54155331423607  -23.05859904153578   -1.50983227033932
C          -9.23436753898882  -23.89801991094901   -2.58561123853412
C          -7.99978026735520  -23.81025549058052   -3.21473674515403
Br        -10.49892388363349  -25.15721879078063   -3.20337579281726
Br        -11.23513725671900  -23.16546867146178   -0.68152874104530
H           2.16396636315562    3.42466547265137   -2.35118266056756
H           4.81396904649989    0.21252810219770    0.37279146159552
H          -0.70678541454367   -1.44042758514065   -2.20471191119591
H           0.96061478857964   -2.85014409726379    4.95436775243669
H           1.15522444961566   -1.20246080262828    4.28450745546406
H           3.23275980368790   -3.44928645569401    4.14035849520304
H           3.32397019096381   -2.02758211865782    5.18791002190529
H           3.41841353966423   -1.83863243680443    3.43185700317529
H          -0.56499919316138   -6.64704592246452    1.65902471893667
H          -1.52434645827256   -6.78242252600969   -1.25847289219634
H          -2.78057145458548   -9.47341421263683    3.40185898683796
H          -1.58412329578239   -8.49128980874949    4.28453198891819
H          -1.54923934854765  -11.02555528010736    4.73402108947576
H           0.01917856748874  -10.30701277357265    4.32506691551568
H           0.01815269818149  -11.17854500920115    2.12383751806870
H           0.08942120483421  -14.96252024216128    1.86017869112137
H           0.96789599471893  -13.47788439451333    1.42674749577688
H          -0.74686840398953  -13.67536049649333    0.95636351103873
H          -2.86012159939660  -12.20043066742648   -1.89929412007472
H          -3.49640905520070  -12.99301475056997    0.99272887541148
H          -5.78243777494620  -18.52436679541528   -2.33716930676292
H          -2.78876599840251  -19.16785174822529   -2.41288795238844
H          -3.67053780015668  -21.08509580619405   -3.71083546402415
H          -8.89161284104076  -21.49262178806157   -0.20792571154586
H          -7.75623600623089  -24.44688934295894   -4.05116612372805
