86
 SCF done       -172.034791294272          0.000989374564
C           1.04915429311609   -2.33870847418941   -1.75999076592458
O           0.73322403924580   -3.47281178446150   -1.44314041028275
C           1.96565068026033   -1.94202670895392   -2.84084821419386
C           2.18390555266991   -0.55206053184479   -2.78070492244082
C           3.01421835050072    0.05115512120835   -3.70958138368662
C           3.60951567039927   -0.74123535689925   -4.68607402216792
C           3.38521386696529   -2.11903225664729   -4.73803483061135
C           2.55819629216637   -2.73108377803349   -3.80473419985482
Br          4.20131475167033   -3.17094113085833   -6.07773662474706
Br          4.73931911888330    0.08267792952968   -5.95603852859292
C           1.41404742421025    0.00362363472648   -1.66764942791162
C           1.38095309486110    1.31978962558349   -1.28925791680048
C           2.12403747400742    2.34215931638834   -1.91670389326194
N           2.71406704050675    3.20652457932984   -2.38650313557684
C           0.61014158907430    1.81755181981786   -0.21694746899768
N           0.00438005721057    2.27860099855464    0.64145114412719
C           0.67509006023598   -1.08644637975176   -1.07429461841585
C          -0.16555598589180   -1.09592075243208    0.01119642595359
C          -0.96417450391104   -2.22257904961609    0.27055040499526
C          -1.45588700582176   -2.73339330482386    1.44652593585419
C          -2.13019836538548   -3.95726994148214    1.20471732024363
C          -2.07559435248888   -4.29315181393223   -0.13534665284815
C          -1.50237120338327   -3.09779773951185   -0.83709900700938
O          -1.77074213342163   -2.72534194710612   -1.95215744619599
C          -2.64649070237526   -5.44830199174376   -0.70465493185223
N          -2.36369913009694   -6.00210279816989   -1.92225797990918
C          -1.32468439749349   -5.63227439393763   -2.85955330191902
C          -1.89653973280293   -4.93466392571973   -4.08910203330365
C          -3.14845898772032   -7.14219741789198   -2.17307901474009
O          -3.04770213535492   -7.82302041192174   -3.17125836678390
C          -3.99195916265289   -7.27111985138419   -0.99759541152396
C          -3.63526311108723   -6.25586685585763   -0.10307004669217
C          -4.47702415636371   -6.37499141220672    1.07722668148741
O          -4.50310043265230   -5.75533653501417    2.11827198783642
N          -5.31339758969848   -7.46516165153441    0.79366070531126
C          -6.36201967531532   -7.86446062380935    1.70474505854079
C          -7.71743361157864   -7.30250398995199    1.28497012864703
C          -5.05501144064242   -8.01252632848264   -0.43951626327130
C          -5.77765616920235   -9.07615288682838   -0.99084962722691
C          -5.51356559663994   -9.59586286976073   -2.23757514328744
C          -6.31291223656453  -10.56334991060193   -2.85088493393739
C          -6.17212913022288  -11.08915749803180   -4.12029709195150
C          -7.26694603022745  -11.93043640231623   -4.42827494297061
C          -8.17241378751259  -11.95615757348664   -3.38634789427447
C          -7.55753784953394  -11.18389677063040   -2.26497253264010
O          -7.90972673807144  -11.17458772481606   -1.10866578435644
C          -9.40413492803706  -12.63657878749619   -3.34905227304969
C         -10.46176932055949  -12.44532487530457   -2.50375391610258
C         -11.48463745067631  -13.51528760676347   -2.37157501972153
O         -11.62494826821026  -14.48210099828819   -3.08264355713893
C         -12.25319173174422  -13.16267563851022   -1.15622260436838
C         -11.80848534682213  -11.92081758124784   -0.66565029043910
C         -10.79169358741122  -11.39010867400160   -1.57169254942108
C         -10.42035444805272  -10.07384011826182   -1.64613478836952
C          -9.62907109419231   -9.53666466326245   -2.68052615083471
N          -9.00086017401407   -9.04100981585735   -3.50420783012953
C         -10.79709767980460   -9.08960083046016   -0.71052167805270
N         -11.03395408858449   -8.25594538883105    0.04212915581702
C         -12.36275945983967  -11.39745943858193    0.48966340843879
C         -13.36067717625982  -12.11998131477295    1.13379550278044
C         -13.80840352195751  -13.34389602788106    0.63163270467244
C         -13.24977237923233  -13.87617784374735   -0.52386299411797
Br        -15.17815897089239  -14.29585199853461    1.51964302354613
Br        -14.11188771553111  -11.41361844811343    2.71769367275827
H           3.21076315503699    1.11112601104801   -3.70125130808725
H           2.37884086227335   -3.79452455035339   -3.83600978149895
H          -0.21749169164468   -0.25151200349548    0.68510677448416
H          -1.28914861953654   -2.32052628423632    2.42583795274067
H          -2.59371132811218   -4.55418437470116    1.97074547018337
H          -0.83757347577517   -6.56306529235899   -3.16883444600047
H          -0.59749912103315   -4.99898264873616   -2.35154525758389
H          -2.62988018276769   -5.57498640312074   -4.57269018918118
H          -1.09520658385924   -4.72871687563121   -4.79306151482095
H          -2.36411754147357   -3.99559573312985   -3.80829960628958
H          -6.08400628932845   -7.46294475688370    2.68298208645330
H          -6.39292254541786   -8.95517431164393    1.76544432886512
H          -7.68440398240186   -6.21604776111619    1.27353343797797
H          -8.48213914058205   -7.61755058987737    1.98853029191515
H          -7.99889543978799   -7.64948060080083    0.29336547362357
H          -6.59217546627468   -9.49117045530986   -0.41685109582096
H          -4.67932052767860   -9.20925759794802   -2.81052720454795
H          -5.36579570386398  -10.86439920175688   -4.79479336485234
H          -7.40205860453051  -12.42825949533433   -5.37263214300724
H          -9.52411284202362  -13.46043706659674   -4.04722062905474
H         -12.03684436896967  -10.45795959946885    0.90618603274925
H         -13.58680722545920  -14.82229260803827   -0.91809614660259
