88
 SCF done       -206.417152558705          0.000800954432
C           1.98012837896464   -3.38995970159719    5.46926547751790
O           1.85279045786697   -4.44565077429427    4.87338861863668
C           0.89699513753409   -2.49859307284453    5.91869671951208
C           1.45310604506026   -1.38768931731693    6.57955180884211
C           0.61760874070414   -0.40821664372158    7.08927098635724
C          -0.75676591141787   -0.55418989294198    6.93063115808758
C          -1.29807320958107   -1.66198132524532    6.27312660296423
C          -0.46499990787489   -2.64788887540517    5.75981820975649
Br         -3.16802610532195   -1.83462457042442    6.07213098808434
Br         -1.89544297046631    0.78365602692897    7.62551499962058
C           2.91000722305086   -1.51911220556728    6.58319023294855
C           3.78145466577164   -0.63809253252944    7.16560905326143
C           3.38297609938547    0.53484565400517    7.84455681085519
N           3.11979170964865    1.49843835873989    8.40829688820564
C           5.18705178357339   -0.77025899360618    7.18468086732196
N           6.33263309364290   -0.81953595162850    7.23856530293979
C           3.23082433476992   -2.74876729168425    5.88013377094444
C           4.49346367155407   -3.22434405175119    5.62130680408859
C           4.90662703339783   -4.39025457714691    4.96851632494871
S           3.87783213882007   -5.62407949395301    4.30388680696903
C           5.21360725626950   -6.56720817296811    3.78569203208782
C           6.45075780506160   -5.96445973691655    4.09601888096216
C           6.27385862469110   -4.72646074517261    4.77405550626079
C           7.40545610772270   -3.99257477114490    5.17026605463145
C           8.65520423011258   -4.48403422334409    4.89213382969966
C           9.88756472235022   -3.72021221528902    5.30539615475582
F           9.59834655101955   -2.57063925122419    5.92414540299335
F          10.65558881215084   -4.42642009277637    6.14999530072710
F          10.65770368703708   -3.40253902034962    4.25245903337887
C           8.83045375347737   -5.71885006545277    4.21350098429092
C          10.13182519144186   -6.20872164942497    3.93667742338108
N          11.17307576512621   -6.62160694974946    3.70191035729254
C           7.73375849697782   -6.45499761010561    3.81830374079259
C           5.02816037724905   -7.81295357199168    3.13847525304519
S           3.44250745196951   -8.52274876665334    2.85517932593902
C           4.32135398881723   -9.86720137604527    2.14338214072673
N           5.61147095409338   -9.68942898768242    2.16774387989878
N           5.99824228060623   -8.57629084560598    2.70526414230657
C           3.66469813676872  -11.02180967041897    1.61861823300054
C           4.36596527667569  -12.06359300340590    1.14144013868908
C           3.80632736083341  -13.29883622815025    0.64058813204304
C           2.72239302267977  -13.42925322387515   -0.24436110232365
C           2.07316574741138  -12.27071404120351   -0.90457398136985
O           2.34924519563458  -11.11329437713612   -0.81249372504605
S           0.76589744064014  -12.86050159498616   -1.96968899704964
C           1.07130237742494  -14.57510624389553   -1.55693762673111
O           0.36240800375177  -15.44569585957709   -1.96669832245775
C           2.25093846271940  -14.67597845958302   -0.65989454098708
C           2.82932516970453  -15.91227572607857   -0.26193446189975
C           3.90729307182720  -15.77539150056374    0.64610404151343
C           4.36432639930956  -14.51990701040948    1.03922097524579
C           5.50958252905532  -14.70300122659759    1.96145542485629
O           6.17814704811669  -13.89903873364157    2.52797530874256
O           5.69277056809171  -16.05487580069411    2.09261280883202
C           4.76768322765353  -16.75590834072507    1.37898756043247
O           4.72454142902106  -17.94676157582077    1.45467831923514
C           2.36032203304945  -17.12815692383083   -0.86956859758682
C           2.73591071930129  -18.39585417119903   -0.59427287051898
C           2.26865456734366  -19.50988695948879   -1.35198177854087
C           2.88416127205317  -20.71654951971330   -1.40394931919363
C           2.16937650134112  -21.93210776029009   -1.89456300214498
O           1.14477191175174  -21.96636628184411   -2.52743196177727
C           2.96453796183546  -23.06572539056349   -1.37448761067402
C           4.13227801463337  -22.58317315028692   -0.75082600207146
C           4.18096136996324  -21.13057857818139   -0.89455828347622
C           5.29878623840874  -20.35169810729187   -0.78734956331012
C           5.37610628349428  -19.00599924534369   -1.20970983413740
N           5.51567538815384  -17.93286452264306   -1.59092780131955
C           6.54989535693982  -20.84096799979250   -0.34764389013857
N           7.57752421556957  -21.20133621262414    0.01009185245176
C           5.01493257671951  -23.47082449073194   -0.15860488969276
C           4.72379722810125  -24.82944558593251   -0.20547436242366
C           3.57045560933813  -25.30215567954360   -0.83985439711620
C           2.67878575982939  -24.41484134478064   -1.42891419243078
Br          3.20653995342554  -27.15382071711428   -0.89867510879379
Br          5.91922861580930  -26.04225674806932    0.61014288424502
H           0.99580551395837    0.46130866320434    7.60160413094853
H          -0.87059131084449   -3.50761218911926    5.24957530911684
H           5.31282016843666   -2.61092933337305    5.96910648816498
H           7.31039223118645   -3.05193705095052    5.69092871945191
H           7.84597468122378   -7.39611470410129    3.30374169514499
H           2.58561206143142  -11.01949740788593    1.65587273929208
H           5.44479816299013  -12.02624785563942    1.21671933730590
H           1.66741218960757  -16.99228983961419   -1.68743321318964
H           3.40161608531392  -18.61714417394877    0.22314134716406
H           1.33048079746851  -19.41662757350531   -1.88798573364364
H           5.90913308515740  -23.13809697875483    0.34374873780349
H           1.78434582232762  -24.76967226384398   -1.91711688999640
