83
 SCF done       -165.429207643237          0.000519558312
C           4.13270321446519   -2.09526364119060    3.95538559948788
O           3.72853913456499   -3.04778983481574    4.58976847155105
C           5.00936444987376   -1.02764820366923    4.49040434804098
C           5.27515082625414   -0.08415453420885    3.48550816067236
C           6.08073852847827    1.00635809434153    3.76833424365488
C           6.60575931014654    1.13219418813816    5.04998217755446
C           6.33565890966115    0.18776588792070    6.04072002670249
C           5.52790387296448   -0.90727417458779    5.76186964248844
Br          7.06292764258890    0.38265464809299    7.77519141252772
Br          7.70572351961925    2.62291378121625    5.43393011707732
C           4.58548370795635   -0.49711173741101    2.26311566169834
C           4.59410591369540    0.21787576570070    1.09030026391975
C           5.28488773046021    1.43524222379108    0.91170443560833
N           5.81923243654567    2.42813794681559    0.69599049932462
C           3.92508149044223   -0.12255327314717   -0.10294065246061
N           3.41411664694516   -0.31913508268545   -1.11393075516680
C           3.89900864494477   -1.74287841722127    2.54348600622589
C           3.19379417428575   -2.44820065527640    1.59454044289087
C           2.43337545712820   -3.62135143990699    1.65990190483447
N           1.85775434483073   -4.09066603822199    0.48197966539479
C           1.15049831894776   -5.20630893122558    0.75956791932666
C           0.35001520429837   -6.19832038918996    0.20498702617638
C          -0.01040515712717   -7.04164878463451    1.26461548787731
N           0.55291199207013   -6.58124476703806    2.43380883880163
C           1.27330003910116   -5.46156889002680    2.15750725924338
C           2.07071418611348   -4.48142687861105    2.71804793049944
C          -0.82427033735415   -8.20574346395940    1.26172424211353
C          -1.36498352396915   -8.77100534509702    0.15816437050025
C          -2.17809147301496   -9.93437074673054    0.22070374151692
S          -2.79727860294809  -10.71833637799447   -1.23290819124980
C          -3.54888577587380  -11.87091870140718   -0.12956042363826
N          -3.29785902236450  -11.59582209513258    1.11964870841820
N          -2.55159299071953  -10.54504445726368    1.30935467929851
C          -4.32651660855388  -12.96161884409988   -0.60025114268570
C          -4.95875400977598  -13.81671093154273    0.23720930632696
C          -5.73727807888823  -14.92967207285811   -0.17313490377986
N          -6.40940732568760  -15.70090567457747    0.75094057184842
C          -7.06766233834849  -16.69115215279984    0.09455117647253
C          -7.90243080972328  -17.78445795123358    0.26095477039988
C          -8.12333885052742  -18.30384533391588   -1.02893256776579
N          -7.43157638079143  -17.53848625353958   -1.95252409915160
C          -6.79107579272802  -16.54242020215390   -1.29493018115259
C          -5.96377672170483  -15.43856064710796   -1.45952987251492
C          -8.87249751593789  -19.42569277832485   -1.42369553818884
C          -9.67762844461213  -20.15865191527588   -0.59478092816330
C         -10.35264001432347  -21.29981573437028   -1.04251154020827
C         -11.20239335725531  -22.13865169529954   -0.36369427122825
C         -12.02631621260381  -23.07397343436611   -1.16344124444328
O         -11.90142500658126  -23.33465672450140   -2.33959466483741
C         -13.06001167838986  -23.58104982853229   -0.23453086187172
C         -12.82509417789589  -23.05592070689350    1.04829922859658
C         -11.59507566185284  -22.25489802719828    1.01879229358931
C         -10.90698533862309  -21.87483911491533    2.14460084199916
C          -9.61601394367177  -21.31214350658334    2.18735382393618
N          -8.56150167254467  -20.87864788640098    2.32901678399933
C         -11.37676514508086  -22.08159451905646    3.45924726808281
N         -11.70525518926298  -22.20262611924229    4.55263550028461
C         -13.70407861873850  -23.34847829709335    2.07675896541326
C         -14.79393180706299  -24.17040174402191    1.80914133262987
C         -15.00664430004106  -24.70201379006295    0.53731976790519
C         -14.13321128070840  -24.40400969462544   -0.50102742428303
Br        -16.49174994302518  -25.82452321667220    0.20417635078467
Br        -16.00385963822391  -24.55348534895795    3.21199887345062
H           6.31510736766837    1.75688827277346    3.03141914196769
H           5.31043897943961   -1.64572796229925    6.51785458349706
H           3.21965555836125   -2.02575492538003    0.59720499921485
H           1.95820383849790   -3.64411915086415   -0.41432537989114
H           0.05096884222904   -6.30891876327708   -0.81690313863703
H           0.44451171682373   -7.02045875823113    3.33212443476862
H           2.37727293551500   -4.36211072308858    3.73614498512208
H          -1.02039807934559   -8.67434881149913    2.21671425234526
H          -1.18961103258393   -8.35816776216456   -0.82334036592356
H          -4.39540231422601  -13.07694804207064   -1.67094433304325
H          -4.86896615547861  -13.64011966903267    1.30060226129969
H          -6.39743769875480  -15.54092989836126    1.74388433307555
H          -8.28151293983604  -18.19925988344366    1.17249347221246
H          -7.43638571056115  -17.70054144920066   -2.94500218277036
H          -5.56226907943851  -15.04477597232011   -2.37047277191870
H          -8.78859623700843  -19.72773399241843   -2.46123628748833
H          -9.80442289515661  -19.83079147892619    0.42265855469332
H         -10.25830919729260  -21.54010199265252   -2.09776883048829
H         -13.57874653132823  -22.95382173326486    3.07181273662554
H         -14.28966831731994  -24.80304883353919   -1.49115134111385
