97
 SCF done       -191.785818709032          0.000994764297
C           2.76069650765325   -1.20099267587859   -4.66170507583658
O           1.89339957894999   -1.91866294382452   -5.11199733911666
C           3.68203870088319   -0.35414503086391   -5.44308961496803
C           4.54898401856102    0.32885810367173   -4.57236330920923
C           5.49634907474957    1.19463738021398   -5.09567032233982
C           5.56123540867862    1.35899999656893   -6.47449177536531
C           4.69711391403581    0.67078111331247   -7.33028821098972
C           3.74468863028316   -0.19651897820455   -6.81231583721938
Br          4.81287011673159    0.91016056690920   -9.20009993735406
Br          6.85205078698803    2.54145819658324   -7.18558488713075
C           4.23591680239089   -0.04898798177849   -3.19548367656801
C           4.89830624750783    0.39922007688289   -2.08627794290903
C           5.98708848360937    1.29934565998445   -2.12978723683366
N           6.87482116366871    2.02529963207585   -2.10149782932322
C           4.62108695672895    0.04363206331394   -0.74674489472444
N           4.47607602689655   -0.18275410015577    0.36885375344736
C           3.11989287417248   -0.98470161485493   -3.24455187867829
C           2.50763682407684   -1.55351897503355   -2.16735397971763
C           1.42974723366487   -2.46575291283076   -2.11703143084077
S           0.51385740274921   -3.18746725366462   -3.43210439728358
C          -0.38251811218346   -4.01612520472813   -2.18582765196764
N           0.03191402054966   -3.71485811989358   -0.96724627946272
N           1.00749963750088   -2.87913123781440   -0.93708116562532
C          -1.43091515734372   -4.93001167511551   -2.46487754853564
C          -2.08850898065777   -5.58243919640129   -1.47207922855315
C          -3.10944573075168   -6.53407669305381   -1.71819582651048
N          -3.75965243011323   -7.22839472719129   -0.72738958237776
C          -3.50468823692005   -7.15244801880496    0.69148842189864
C          -2.27203026656495   -7.96154119602207    1.08612566542226
C          -4.69799066359278   -8.14038954184288   -1.24677448540466
O          -5.41781725164297   -8.83064395512851   -0.55883758470779
C          -4.58970590929807   -7.97892943072501   -2.68272697488856
C          -3.63129773678328   -6.96568524669917   -2.93781180672692
C          -3.56387475925237   -6.76921449939269   -4.36854567494415
O          -2.91054345393838   -6.01458293939246   -5.06075665101830
N          -4.49760498395653   -7.68524492467869   -4.88944444318160
C          -4.67916669335509   -7.83585464789743   -6.31283986791909
C          -3.90091964942052   -9.02710686215052   -6.86544895979066
C          -5.08783983561506   -8.43417494253469   -3.89801775611437
C          -5.99924446434293   -9.49917156525635   -4.14964738482821
C          -6.36163064891645  -10.38048383071694   -3.19259358630777
C          -7.22491335571420  -11.51477786109326   -3.41046512707752
C          -6.96633629880919  -12.71304929780306   -2.73652224540407
C          -5.87741986923678  -13.05676568786690   -1.79234743284915
O          -4.96160862220473  -12.38559233034361   -1.41088831567971
O          -6.05366466403417  -14.34633193689492   -1.41469957551226
C          -7.17545859811459  -14.93101783376341   -2.05410131815953
C          -7.73270630111432  -13.85446265162749   -2.92800401580738
C          -8.79405642148507  -13.85847475522088   -3.81632289750744
C          -9.06696808928409  -12.68750001668511   -4.49825948230715
C          -8.31826418206250  -11.51899893836375   -4.30665038545920
C          -8.73323726713506  -10.29970409574467   -4.97062835294279
C          -9.19009791327108  -10.23756084224384   -6.23734731917871
C          -9.56151581971404   -9.02969193202024   -6.90033451508462
C         -10.11123871093330   -7.89800643943645   -6.38878103433285
C         -10.04089151731209   -6.63669042496143   -7.17884840577592
O          -9.69554270937544   -6.52190677829118   -8.33021558180088
C         -10.42238037568245   -5.56698184977840   -6.23218188965926
C         -10.80464955791261   -6.13997376136633   -5.00473176338349
C         -10.75675747975795   -7.59634060386361   -5.12423905542163
C         -11.43504364667743   -8.46933690347374   -4.31836001667788
C         -11.58971274811386   -9.84341325785171   -4.59356886361801
N         -11.79149549086138  -10.95606439075782   -4.78679332635792
C         -12.14781924274691   -8.08063503414348   -3.16328405440188
N         -12.73397049484657   -7.81335068401597   -2.21444176705992
C         -11.17500044829726   -5.32325653659081   -3.94941441911679
C         -11.17202744263276   -3.94632720296386   -4.14114585624471
C         -10.81016535862368   -3.38615482128138   -5.36955305640679
C         -10.42643034462748   -4.20101968140793   -6.42698713641398
Br        -10.83642146840172   -1.51235667913017   -5.60872845098982
Br        -11.67470943737603   -2.82945228366797   -2.70232261171538
H           6.18034578313510    1.74510346322408   -4.47074280465125
H           3.06906290722459   -0.73329125288461   -7.45994218823021
H           2.86029893677965   -1.30157261883366   -1.17441300778536
H          -1.67986529823184   -5.09865228232123   -3.50329746448928
H          -1.80586985400219   -5.37529708904957   -0.45023394344704
H          -4.38921705048496   -7.57168667751244    1.17917976460731
H          -3.39784700972235   -6.10602920627129    0.98857489485910
H          -2.41183136073999   -9.00490813874025    0.81388231029587
H          -2.12141148587345   -7.89968421634706    2.16009050363020
H          -1.38209484481260   -7.58623909300796    0.58581218302739
H          -4.30336984899180   -6.91311099246127   -6.76388976938644
H          -5.74613610662341   -7.92750449350518   -6.53833981440922
H          -2.83858974612751   -8.89273647880056   -6.67857667480958
H          -4.05804539768658   -9.10336565637929   -7.93775303489440
H          -4.21993201569202   -9.95491672901442   -6.39530317850232
H          -6.34315194816454   -9.63039015006373   -5.16726202305175
H          -5.92842149563393  -10.30345959139464   -2.20350893217002
H          -7.88861123726831  -15.26123354589625   -1.29028051294355
H          -6.84091517722528  -15.80778139516081   -2.61968736580324
H          -9.39586519548078  -14.74031331143390   -3.96749123953738
H          -9.91632290771597  -12.64647817139415   -5.16240287459594
H          -8.62226750149776   -9.38579468452776   -4.39838293365266
H          -9.16842772886072  -11.12724025717873   -6.85249797350401
H          -9.31652870550305   -8.97224679113621   -7.95758715642105
H         -11.45570142114078   -5.72150231316280   -2.98758754226386
H         -10.14164586012818   -3.77882468128292   -7.37821675484629
