101
 SCF done       -224.542102866291          0.000998397107
C           1.81845333535312   -1.49755564486808   -2.36978934785297
O           1.78582780772806   -2.70215221700862   -2.19859016207243
C           2.50263721827273   -0.78262709637398   -3.45654689942627
C           2.24728276465214    0.59766883996962   -3.34568190858377
C           2.80779580072478    1.47184050437067   -4.26210319890917
C           3.60915137373753    0.95431416254806   -5.27445482170861
C           3.84893061998263   -0.41990876660138   -5.38088582633491
C           3.29152798235551   -1.30093732969634   -4.46422074687007
Br          4.93625076559847   -1.09475387181237   -6.76892340398248
Br          4.37989744663141    2.14635082637357   -6.51863909881614
C           1.36733510238482    0.82490777139692   -2.20212133763446
C           0.75100430637244    2.00188375255265   -1.88947487961467
C           0.95800775756682    3.20542115309830   -2.60195148640502
N           1.09698413678818    4.20472583713632   -3.14639111389883
C          -0.22322269449782    2.17212944280115   -0.87675293154085
N          -1.05061747362324    2.38429038196241   -0.11236988611542
C           1.19989331391463   -0.45790829595957   -1.52937129513247
C           0.70301108693663   -0.64206268269098   -0.27241151457789
C           0.53717166075189   -1.85000683610587    0.44682440816745
S           0.67266324022801   -3.46129969709411   -0.20188086576243
C           0.23892282336217   -4.18342177201800    1.31125173081932
C           0.04863052954760   -3.21496910589063    2.29276634331657
C           0.21411827938741   -1.91341889081570    1.80526812282031
N           0.25590068831243   -0.74603429689483    2.66810040506721
O           0.97957604367072   -0.84117164334525    3.62782874216201
O          -0.35892704607847    0.22910850558387    2.32090312190367
N          -0.23807019571500   -3.48649932993174    3.68907523645813
O           0.23978584133798   -4.49328228985769    4.15283225855411
O          -0.90366503893586   -2.66954283839322    4.26667281351568
C           0.04044099934170   -5.59048206220279    1.45845116709318
N           0.75253311802341   -6.57228075414307    0.82238361549110
C           1.88478415884581   -6.42627325214691   -0.06181137325563
C           1.46799500768586   -6.46584797046446   -1.52913529807860
C           0.29569457747678   -7.86381043027119    1.18803354263112
O           0.78311698375163   -8.88788866027653    0.76755312038064
C          -0.79748685416531   -7.60344274882523    2.09709208059775
C          -0.93072358415555   -6.20530939937163    2.23722862868016
C          -2.06117818654182   -5.95830048356559    3.11087939226271
O          -2.58836776824254   -4.93141540773854    3.46749154361821
N          -2.50284895838493   -7.24730281452426    3.48759711189528
C          -3.59774368726834   -7.37522072764242    4.42082672651531
C          -4.94096497076170   -7.53139171540791    3.71130971831946
C          -1.76294304115840   -8.22777035898480    2.88542726249209
C          -1.84204687968485   -9.64615138775152    2.99435026630963
C          -2.79449179591061  -10.41188051115500    3.56331581264502
C          -2.71699032011759  -11.85374222656279    3.56255391929544
C          -3.82225919661970  -12.67015016499870    3.26662229722307
C          -5.14325673146950  -12.10316619419181    2.92543610353186
O          -5.43971487727117  -10.94766869357814    2.83239835007838
S          -6.29485178695703  -13.43245593424317    2.64456002208509
C          -5.04056755209295  -14.69515653743753    2.87942428607386
O          -5.29852544417422  -15.85134799990938    2.72443244253477
C          -3.74862814533834  -14.06082918217063    3.24430781166423
C          -2.55335312048886  -14.77956661554610    3.51715665416644
C          -1.43630204879278  -13.95355591876810    3.79640787997704
C          -1.54206360713939  -12.56367654968570    3.84424955446453
C          -0.26256540183217  -12.02116070380746    4.36878634493538
O           0.03595539753299  -10.91770310140149    4.69569262041127
O           0.59190946887337  -13.08605284346346    4.48980714035623
C          -0.00679782973541  -14.25127630158432    4.12082702971651
O           0.62541601326140  -15.26197612884581    4.05300059276976
C          -2.60834787865192  -16.21441975633305    3.58240757774147
C          -1.58784450262112  -17.08573480611028    3.73638061410442
C          -1.80109483719445  -18.48818411495703    3.87911782315339
C          -0.90679623583337  -19.35005199749207    4.42293994635657
C          -1.01086436880033  -20.82238707662202    4.20248903328906
O          -1.96867195769865  -21.43148895084230    3.79820846667101
C           0.33564742851573  -21.34230816380937    4.52757100304195
C           1.13842693323070  -20.30260512581291    5.03735629981566
C           0.33567657141123  -19.08605367586362    5.12858223330810
C           0.60586251654926  -18.00356866707538    5.91796155960432
C          -0.32520173589220  -16.98247803760446    6.20998850251899
N          -1.05576924392062  -16.15759284902668    6.52994896381790
C           1.81382824562084  -17.84415527371680    6.63404829522271
N           2.78126508603872  -17.68353210033617    7.22763076619626
C           2.45696009572414  -20.55275186384491    5.37845461578171
C           2.95327930347912  -21.84095357572267    5.21415865175946
C           2.14600960074556  -22.87149881943127    4.72259811846183
C           0.82485866374239  -22.62340619523960    4.37265874557603
Br          2.84429643105470  -24.61435749465991    4.52298296333031
Br          4.75382269782456  -22.18541066285339    5.66667882477015
H           2.64801112483469    2.53661518393066   -4.21147069333934
H           3.47013472788511   -2.36259088189237   -4.53500082058478
H           0.39311979202009    0.24238644965849    0.27510617363636
H           2.54698564187795   -7.27251918547525    0.14393073221726
H           2.41002894513791   -5.49753032575613    0.16922210758998
H           0.96950240609543   -7.40745178951253   -1.74416789431064
H           2.34975020409532   -6.38623922963655   -2.15748017284270
H           0.79790743303135   -5.64455119506747   -1.77055298042746
H          -3.60848074727039   -6.44656065256543    4.99957686648521
H          -3.39449588330605   -8.20694426304578    5.09829118895360
H          -5.13558512847561   -6.65336639456963    3.10059564316251
H          -5.73314479179333   -7.61818504595534    4.44955468932383
H          -4.96441374553002   -8.41014690436084    3.07161627591566
H          -1.01499785465683  -10.12992806879376    2.48967331172211
H          -3.70228661710542   -9.98992921446800    3.96283984694438
H          -3.60494692897332  -16.63144711716831    3.55618462799080
H          -0.56356795657968  -16.75178663501452    3.74555323155636
H          -2.71419885349846  -18.91748539935442    3.48154395857628
H           3.10673045975786  -19.77846626021873    5.75391383795292
H           0.19550354587632  -23.41127865506221    3.98869824029243
