100
 SCF done       -213.929407894913          0.000946373975
C           1.66807960475493   -1.83813543292739   -4.21469959773913
O           0.68844104873966   -2.52285668770483   -4.39455821197275
C           2.36191644512649   -1.01484937871614   -5.22817745402845
C           3.32480070060185   -0.20147607982563   -4.60519831300017
C           4.08472983181854    0.66930236448158   -5.37028682223020
C           3.87450231750637    0.70737020375861   -6.74358226109449
C           2.91531678251589   -0.10571204253180   -7.35324841210885
C           2.14453901913372   -0.97241431596120   -6.58975739693257
Br          2.65289634630948   -0.04208757741553   -9.22287331367053
Br          4.91885761193216    1.88994560196471   -7.78414015167881
C           3.33037695236925   -0.48132909596043   -3.17188078549995
C           4.17319489984762    0.08164752734280   -2.25338352495834
C           5.12679381292049    1.07736800976049   -2.56021532212727
N           5.91135054960232    1.89297309603722   -2.74793346537195
C           4.22706192848235   -0.25472132233888   -0.88251969198454
N           4.34937440224877   -0.48559325482144    0.23474804154930
C           2.33894737627467   -1.51560582051179   -2.92548786002013
C           1.97022206315282   -2.01957259100332   -1.71958047643991
C           1.15814198113652   -3.18529912558566   -1.53040460833146
C           0.28218003814995   -3.28822159298954   -0.45463419389171
F           0.15884131442001   -2.24366287469485    0.37701928775420
C          -0.52755860955684   -4.40324992055809   -0.21613852471729
F          -1.36135287528327   -4.32163513033279    0.83618273871984
C          -0.51053340631290   -5.54266999453792   -1.01988573567527
C           0.41612250386069   -5.48643492283872   -2.10103274345097
C           1.24458861413565   -4.33947118452822   -2.35114854363394
N           2.08327240638254   -4.54219567793339   -3.36332687487970
S           1.81636360060802   -6.00668164914711   -3.96855602759016
N           0.66146224941802   -6.46881803653279   -2.96205201685099
C          -1.30177705523507   -6.72225917507423   -0.86064645535006
C          -2.07572622840252   -7.03164117863239    0.21254091186551
C          -2.81231154198975   -8.23866379887909    0.29952712879486
N          -3.54537013688426   -8.59551001081092    1.40643705562790
C          -3.74599099668841   -7.81220080545690    2.60257335740867
C          -4.77692138656461   -6.70612387353442    2.39250628330012
C          -4.16520516601424   -9.84785230661641    1.25028481991323
O          -4.85647117236938  -10.36395762566421    2.10368268414700
C          -3.76341795196537  -10.28121702219516   -0.07209325526307
C          -2.93971420890738   -9.27478990304056   -0.62854529221565
C          -2.55650805142301   -9.69806808979336   -1.96012992574780
O          -1.87038805916133   -9.17955212621636   -2.81545958889518
N          -3.19111619828971  -10.94246461817605   -2.12295506466724
C          -3.00453018378390  -11.71885479066439   -3.32567215526011
C          -1.97230850172748  -12.82653221427741   -3.13158281094744
C          -3.90307315295227  -11.31046531699856   -1.00672188794238
C          -4.62625723341412  -12.52504498100387   -0.91329880733643
C          -5.24176319824123  -12.92117266399110    0.23130895635832
C          -5.98066603225530  -14.12929850183026    0.42113674316513
C          -6.38007037098329  -15.03608614665583   -0.55914076392329
F          -6.08666604815177  -14.81700546865768   -1.85295593741731
C          -7.10729606398612  -16.19423493422757   -0.27363834667227
F          -7.43106357935070  -16.98426490209377   -1.31218460046334
C          -7.49705518415740  -16.58115113756199    1.00768140994795
C          -7.11614950013987  -15.68213434126733    2.04132606346657
C          -6.37953706449846  -14.48318715108253    1.74270814147041
N          -6.11384960769495  -13.77872673084382    2.83772347918761
S          -6.72769537149549  -14.52827860056005    4.10985406792484
N          -7.36355983697746  -15.79369224959349    3.34440964733605
C          -8.17745237081459  -17.82037797274028    1.20634591874030
C          -8.52938598457068  -18.33402687342446    2.41075347800921
C          -9.18914693966598  -19.57478173011029    2.59648948192751
C          -9.24906972779616  -20.68011678188618    1.80022297580136
C         -10.31998639096325  -21.68049445520186    2.07405534873270
O         -11.02047651694369  -21.74174483538321    3.05571037589425
C         -10.36791034274987  -22.53620464650049    0.86969344368090
C          -9.32506318858054  -22.17334628136925   -0.00179313556154
C          -8.52214729228676  -21.12264883119932    0.62701686459119
C          -7.23148384198100  -20.82630772862947    0.27842778647344
C          -6.38191190140868  -19.96682932968522    1.00383868387501
N          -5.63577457399630  -19.29469038179795    1.55918546282192
C          -6.56343547076953  -21.40741568193162   -0.82136240597647
N          -5.97676300982582  -21.84704988818056   -1.70371854590834
C          -9.19960168600722  -22.80814595649249   -1.22575543062166
C         -10.10955893850127  -23.80748942078631   -1.55248610658473
C         -11.12819437676161  -24.17713652703249   -0.67138747723589
C         -11.26514447627510  -23.53482819181377    0.55250753904742
Br        -12.33804474459239  -25.55108430758326   -1.13901410886848
Br         -9.95308927578272  -24.66808484018448   -3.22750039409485
H           4.82964521693405    1.31569247814071   -4.93537421682972
H           1.39761552357316   -1.60205510848662   -7.04770797440736
H           2.28960043110407   -1.52448587803852   -0.81074208129931
H          -1.22695998663911   -7.41995123342159   -1.68531667966336
H          -2.13674523546948   -6.36728588479690    1.05978072700707
H          -2.79105320756801   -7.39634497681027    2.93458202422270
H          -4.10850898204122   -8.51149967166375    3.36125507863488
H          -4.45206115031584   -6.00642235951775    1.62607610804664
H          -4.92324414327824   -6.16155986179261    3.32093844680469
H          -5.72760525098206   -7.13749885194452    2.08880640555873
H          -2.64983159452276  -11.01610695542970   -4.08472938703046
H          -3.96344933045848  -12.13238882127918   -3.64889403964756
H          -1.01587104069029  -12.39672116263792   -2.84425579260317
H          -1.84240098094990  -13.37323528282330   -4.06111670986854
H          -2.28640984609466  -13.52328529809164   -2.35776266901432
H          -4.65334479365650  -13.14120958868824   -1.79804624177577
H          -5.16992407923488  -12.30291708316169    1.11727117305589
H          -8.43333688996604  -18.35650628482449    0.30128914740224
H          -8.35638058373476  -17.73456478128387    3.29332771030724
H          -9.79269476364693  -19.65570810069098    3.49674612443680
H          -8.43042879147120  -22.54403072325648   -1.93350590192523
H         -12.05243988921884  -23.80728233176453    1.23807539258742
