72
 SCF done       -154.149208238403          0.000646675475
C           1.19806340580996    0.41493000955715    2.11176287132977
O           1.03729459225281   -0.75268917006526    2.35850092140095
C           2.01957393970428    1.36901540957443    2.89299410250464
C           2.06058059152096    2.61524390259016    2.24520024414522
C           2.78870207155350    3.65408995721427    2.80466719969549
C           3.45743409849909    3.42972426754992    4.00187453410180
C           3.40963649225054    2.18632371482358    4.63836424431618
C           2.68736495072391    1.14104492086922    4.07837799356442
Br          4.32486233072336    1.90983109019227    6.26709814622084
Br          4.44721102273738    4.84782911573324    4.76424564584120
C           1.25982238222117    2.54416117857364    1.02629448307929
C           1.00348402351689    3.59114825851282    0.18304707549516
C           1.52360684990337    4.89283496569182    0.35797497934732
N           1.91894635672394    5.96634932619138    0.44456939839766
C           0.17867556111372    3.53819183738952   -0.96215235662840
N          -0.48406083848888    3.58141144342135   -1.89809792739099
C           0.73301457753740    1.19247687453257    0.92506408004328
C           0.05274630352131    0.68003925937752   -0.13504796782253
C          -0.60143669295615   -0.57681565412577   -0.18175835928333
S          -1.00773886472902   -1.32635864664706   -1.73703004714367
C          -1.75759588734237   -2.58791164630834   -0.78021376716830
N          -1.67638542240777   -2.35275029192176    0.50876829794527
N          -1.05066499995456   -1.27007679487280    0.82369280937613
C          -2.38084615145450   -3.72433855829927   -1.35580911166882
C          -2.95612222179613   -4.68113272673390   -0.58989799188815
C          -3.59352839212931   -5.84462357389387   -1.08176516482407
S          -3.72221026552742   -6.24058672421663   -2.77054536366254
C          -4.56327535814061   -7.68659865549473   -2.41093028696132
C          -4.74989516865731   -7.88076886822096   -1.07729341758304
C          -4.19873094349160   -6.83314785555309   -0.30594210628610
O          -4.20668116596617   -6.68179140580662    1.03939329428950
C          -4.68492525879200   -7.62490949525185    1.86002732724075
C          -4.71517633169906   -7.41567372308045    3.18885269290962
C          -5.20810711088851   -8.40406567683883    4.08571701205471
S          -5.24031637031319   -8.15748340152911    5.82071938696748
C          -5.92660805480136   -9.78038050787520    5.90522662181925
N          -6.06604981610990  -10.31835022850944    4.72689118519483
N          -5.67881070597735   -9.57246952926259    3.73571822068753
C          -6.26611607532586  -10.39888205451245    7.13724166167234
C          -6.65527416715228  -11.69420086306856    7.21235157972921
C          -7.00396047962567  -12.32286202466498    8.43243983850370
C          -7.18698116700573  -13.65630457236816    8.63571607656693
C          -7.93531073499217  -14.14495271559555    9.82459218425397
O          -8.22600789879691  -13.51694660651182   10.81369017344176
C          -8.29268110149919  -15.54423729816624    9.49740268462686
C          -7.70584928154065  -15.90791207957704    8.27025671764325
C          -6.89094262921689  -14.79369757437262    7.78887850071372
C          -5.87651447381090  -14.88422311356037    6.87483214114349
C          -4.90088787097696  -13.88058559358096    6.68038350005429
N          -4.04218232218594  -13.13343906688080    6.53933639468420
C          -5.60994612693096  -16.04512466473637    6.11733188085968
N          -5.37340787035388  -16.96156735199983    5.46916975804468
C          -7.92978315788123  -17.16958228060488    7.74619858730058
C          -8.73205294480823  -18.05286949748995    8.45978345858438
C          -9.29927071177287  -17.68960870837110    9.68369959035108
C          -9.08134422994631  -16.42296956972575   10.21076525084690
Br        -10.37527037485821  -18.91571999780195   10.63721947886842
Br         -9.05025146700983  -19.77168620237467    7.74187649487946
H           2.85497948158133    4.62480513257792    2.34089575649997
H           2.64300515749972    0.17462940609212    4.55623352500679
H          -0.02031994746431    1.25912069534659   -1.04638708182702
H          -2.37988967186079   -3.80084795069807   -2.43382585062291
H          -2.93846745279684   -4.56599547309309    0.48529945290459
H          -4.88195439698625   -8.32420851216102   -3.21133675944625
H          -5.26598955655411   -8.73553292585167   -0.68089165669333
H          -5.03936838130335   -8.55975565136702    1.44768840939010
H          -4.35819298966375   -6.48668103840841    3.60489799053678
H          -6.15636320643974   -9.80224795029666    8.03194911504220
H          -6.71736687762420  -12.25675307699503    6.29185758200821
H          -7.22049142141740  -11.68376419860100    9.28202442537141
H          -7.51007740712873  -17.48044631723058    6.80286867070286
H          -9.51660177285976  -16.13197270062876   11.15420156868871
