103
 SCF done       -192.173621356895          0.000660738195
C         -11.47418178533575    0.56822298148366    6.93399301142006
O         -12.37765078885664   -0.10681833544187    6.51671266787466
C         -11.59676104444720    1.88358386500718    7.60554625027763
C         -10.35325502337068    2.27274379554440    8.13170263846191
C         -10.24149868845875    3.48273945833494    8.80028111967093
C         -11.37315896682184    4.27765550687793    8.93182795218226
C         -12.60749541219459    3.87662484044172    8.41286694478580
C         -12.72487108758721    2.66522043970557    7.74464961445875
Br        -14.12777344044983    4.97854971913173    8.61023614238301
Br        -11.21877137243722    5.93093663897397    9.83389356376431
C          -9.36404991560573    1.24052825639456    7.83441545689046
C          -8.07216216966275    1.23243686996853    8.28407757171397
C          -7.51253652289844    2.24321169754036    9.09794645469236
N          -7.00253583408827    3.02705704410297    9.76221547712785
C          -7.11653379057286    0.22102363419096    8.04035230131080
N          -6.28337933727322   -0.55520452604664    7.89676801990299
C         -10.01594693214684    0.24144729817049    6.99640521906416
C          -9.39774513650731   -0.80239880047892    6.38799601859183
C          -9.95627156682086   -1.69699765341056    5.43598035476800
S          -9.07808574512896   -3.16940735537588    4.99148365959100
C         -10.38098665458459   -3.44357849718035    3.85838334282642
N         -11.27875893064292   -2.49297679803794    3.88687067732900
N         -11.04522183997039   -1.55219351209635    4.73910018491265
C         -10.40411235503924   -4.57153942425705    2.98411306692895
C         -11.42693633213752   -4.79700635514056    2.14291771985713
C         -11.50584385570899   -5.90484792331084    1.21637491385649
C         -10.46788951717118   -6.35554296216289    0.37528812202544
C          -9.20286416210527   -5.61483089168811    0.19201741898134
O          -8.82592857143391   -4.62292450919096    0.74496543736882
S          -8.23591961556678   -6.40688706155552   -1.08808349178955
C          -9.49832223918317   -7.64695109673630   -1.41725531622783
O          -9.40450106416991   -8.40125453460844   -2.33899211536912
C         -10.60266336742877   -7.47737502216899   -0.45601823474283
C         -11.77093023730076   -8.27545765047588   -0.47030798860040
C         -12.83611926118717   -7.73544825584578    0.26968380363133
C         -12.70992782845805   -6.60215238006201    1.06678737230907
C         -14.02128852638669   -6.36452028050116    1.70836455283909
O         -14.36239139521089   -5.51814002817657    2.47543361217476
O         -14.87191724042035   -7.34790234604956    1.25826881700314
C         -14.22822757200277   -8.20945638105327    0.40187544582875
O         -14.77906613645681   -9.14354262612164   -0.10032831108327
C         -11.95043650448308   -9.52950940195133   -1.14745382236032
C         -10.99551442861647  -10.46391500924157   -1.31247196319638
C         -11.18214032140944  -11.74437486191430   -1.94303081757576
C         -12.41075915074308  -12.28291713390261   -2.28857250380393
C         -12.51764134581560  -13.52096838573230   -2.91550743950869
C         -11.40783566468549  -14.27501662030619   -3.24879667880745
C         -10.12646290465323  -13.75330345764071   -2.92086628320485
C         -10.01865295477211  -12.51127894940792   -2.24124936981087
N          -8.80823346291753  -12.05717065599180   -1.87636643289009
C          -7.73250336434551  -12.72531503129719   -2.19721126126018
C          -6.43427110843752  -12.18634846968366   -1.67805479771593
C          -6.09685613309509  -12.83455177789009   -0.33261187599730
C          -7.83497975301434  -13.92502103196537   -2.96206466804817
C          -6.64451358226169  -14.67058730884627   -3.48494122052942
C          -6.18063080869449  -14.05614249728781   -4.80791046237406
N          -9.00693981541951  -14.40685062295926   -3.27981212387682
C         -11.53060476333834  -15.56790668823303   -3.92097041451142
C         -10.71897998316086  -16.63294809855133   -3.59030265042599
C         -10.83008678315102  -17.87244936359561   -4.23171869982750
C         -11.75672344137956  -18.07498771893828   -5.21784264154827
C         -12.60681538990514  -17.01805327488974   -5.59030301058910
C         -12.50023763951879  -15.75523573440632   -4.94443383275804
N         -13.30603027238006  -14.75092375072937   -5.32893836507219
C         -14.19322534045579  -14.94319423510496   -6.26818073692740
C         -15.08571825906967  -13.78010570737113   -6.58225511746976
C         -16.34448116526400  -13.83236443007732   -5.71196971572072
C         -14.31208423170388  -16.21705964562461   -6.90155435032987
C         -15.27736101254749  -16.49220613618248   -8.01520230457581
C         -14.64506547788669  -16.13344404651262   -9.36246215931591
N         -13.52500327849505  -17.20049806878873   -6.55716021214600
H          -9.30838924867587    3.82668675558543    9.21577081731529
H         -13.67020533906668    2.34142845475890    7.33751695232507
H          -8.35307092401370   -0.98692582057672    6.60108085793506
H          -9.55110277278282   -5.23188751597489    3.03440314040388
H         -12.29683829933334   -4.15616116271098    2.20087796871001
H         -12.97057568380097   -9.73831461118734   -1.43674037879634
H          -9.98636168042861  -10.28901934956177   -0.96912102984157
H         -13.31619151799222  -11.74795792430976   -2.04695804443115
H         -13.49760718818335  -13.90764062400642   -3.14381493247465
H          -6.54812221805382  -11.11051144874255   -1.53903491507064
H          -5.62805852767735  -12.36614279191978   -2.38861689192911
H          -5.15943905987563  -12.43819866464112    0.04893000281621
H          -6.00134302772529  -13.91382369043689   -0.43267868130903
H          -6.88205922826570  -12.62616126405233    0.38978915110935
H          -6.94321694878085  -15.70490402417862   -3.66018600869200
H          -5.82974338572456  -14.65507421941558   -2.76129351850582
H          -5.90764556264098  -13.01102398626833   -4.67933711299839
H          -6.97932687567620  -14.11315144566838   -5.54304077538953
H          -5.31753587846671  -14.59636639259226   -5.18879507036837
H          -9.98858517573994  -16.51211294321118   -2.80649875101936
H         -10.17427838894425  -18.67651141514212   -3.93235445641593
H         -11.86466582091264  -19.02261581355215   -5.72131420572215
H         -15.36284236569827  -13.77721197619216   -7.63593329725197
H         -14.53725482097390  -12.86417637456687   -6.35811849645992
H         -16.07339638972512  -13.79153508871346   -4.65994708142466
H         -16.90318659480805  -14.74970510021461   -5.88620167319012
H         -16.98890869399334  -12.98624868424133   -5.93633802497898
H         -16.20037371501636  -15.93015893442357   -7.87517698014949
H         -15.50778048535413  -17.55823551929566   -8.00536705707110
H         -14.37795982472215  -15.07936375282444   -9.40154803132429
H         -15.34172413242377  -16.34479765248451  -10.16979218656524
H         -13.74364061961897  -16.72109574275126   -9.51717482604902
