98
 SCF done       -192.681190327289          0.000946387596
C           0.90624563606918   -0.90407194213146   -1.41607019805676
O          -0.24698164534269   -1.24862043254577   -1.43290414953093
C           1.41411032680354    0.46878813445118   -1.64371818422996
C           2.80052246019663    0.51480561518242   -1.41922207410438
C           3.47768205530125    1.71615310546023   -1.56354059507099
C           2.75849368216013    2.84570459202437   -1.93459792433208
C           1.37989591189047    2.78848612573554   -2.15742283959452
C           0.69614110751399    1.58944541824518   -2.00654646403183
Br          0.43071890639176    4.34007809613537   -2.66419954313573
Br          3.68152946031446    4.48276316386468   -2.13285251113792
C           3.26946340045721   -0.82035134851543   -1.05938266827089
C           4.57449763391114   -1.17025963965918   -0.84050697801432
C           5.65558453028284   -0.26222096396358   -0.88889701404035
N           6.57271369663306    0.42657620819148   -0.90938362681102
C           5.03779161740137   -2.47297276680615   -0.55249766405541
N           5.49514327836912   -3.50088556445774   -0.32576788867675
C           2.11456409698508   -1.70451845762122   -1.05302749587217
C           2.11009148977691   -3.00580252908532   -0.65871420141151
C           1.03895174083841   -3.92343683463490   -0.80174770841215
S           1.00970923166781   -5.42400343145845    0.13954709514896
C          -0.45039182712764   -5.80059178460286   -0.76027375679606
N          -0.75374018810026   -4.86557194518197   -1.62860490652122
N           0.04871257030458   -3.85969196811762   -1.64567193973211
C          -1.18106542469215   -7.00023804862660   -0.55726440257901
C          -2.31379716459712   -7.25518272711680   -1.26145851155683
C          -3.16341518871690   -8.38920028610789   -1.24749764945019
N          -3.07007784300015   -9.57052062416718   -0.54306889494435
C          -2.12436124066426   -9.93845762345254    0.48331997241089
C          -2.43905420704132   -9.25662380470508    1.81287629332888
C          -4.11617620373034  -10.45489007527215   -0.86859549995112
O          -4.22457849613889  -11.56859147705620   -0.39335556285073
C          -4.91025319990977   -9.74212959994977   -1.84331761273098
C          -4.29616185184182   -8.48909713923949   -2.05535826163231
C          -5.07913159227882   -7.75781977798982   -3.03169406416989
O          -4.95139693857980   -6.66386602700076   -3.52886490346290
N          -6.14198793178531   -8.63731818892662   -3.33846741581364
C          -7.15791071893751   -8.26989231092117   -4.29385313677166
C          -6.93197718881242   -8.93508598553175   -5.64966198451772
C          -6.05253613668104   -9.81628213359213   -2.64415972000390
C          -7.00211752436475  -10.86293467790124   -2.74703872707677
C          -6.86879946028673  -12.02707566467473   -2.06216039884885
C          -7.78870823894179  -13.10987773264492   -2.07174893809206
S          -7.16133470271870  -14.68545099242629   -1.69444001629937
C          -8.70932985482056  -15.43011201768380   -1.97149560135934
C          -9.65779682119151  -14.47743438686535   -2.31885928282368
C          -9.15220830310051  -13.16950848346833   -2.33806061122921
C         -10.06644848495148  -11.98466588588528   -2.51266072072735
C          -9.67458495110088  -10.86469597335371   -1.68220424574394
N          -9.43397652285906   -9.96350868175691   -1.02298347010688
C         -11.50242916004220  -12.38164206210075   -2.12890975143692
C         -11.93236463881671  -13.58398362965354   -2.95504618785584
C         -11.10410174475015  -14.82012181423863   -2.56440070581735
C         -11.20921400766852  -15.79163095473159   -3.63378448126547
N         -11.30274964272683  -16.50953847555891   -4.51759423522521
C          -8.88324667522899  -16.83799869536709   -1.88869200251948
C          -8.19413194575332  -17.70906834069017   -1.10709956596631
C          -8.15708805567549  -19.15994807370219   -1.44294388884049
O          -8.86970944225381  -19.74889792925523   -2.21662734299597
C          -7.02253204720065  -19.69590990231449   -0.65623877402059
C          -6.51849913451556  -18.69302703302456    0.19403818026902
C          -7.33870696242480  -17.49497045777600    0.04356690414175
C          -7.48435331348939  -16.50141675701187    0.97441017866073
C          -8.52261065538702  -15.54965304625182    0.89839657217737
N          -9.40216377826261  -14.81278364222810    0.86564585432675
C          -6.69633699344449  -16.39785013684526    2.13939984441242
N          -6.06900783029368  -16.28051065870579    3.09210569954255
C          -5.43234848942345  -18.95842161531939    1.00978927990557
C          -4.86691967128287  -20.22792769752642    0.96808132102948
C          -5.38147870147658  -21.22333848539222    0.13294375965479
C          -6.46925496273264  -20.95905218206690   -0.68995019130432
Br         -4.60163868966381  -22.94362220415020    0.10856275942154
Br         -3.37354116296099  -20.59307401395183    2.06563643080694
H           4.53883082191874    1.80213525181392   -1.39534599740992
H          -0.36842388733753    1.52935520466305   -2.17191844973170
H           2.99579683503930   -3.41984761206769   -0.19486316885031
H          -0.77517816364417   -7.67500010431277    0.17824055394164
H          -2.63487719194385   -6.49203618753695   -1.96049276921633
H          -1.10903822783600   -9.71871233270398    0.14510285762187
H          -2.22228276416070  -11.02194590640986    0.60152370504285
H          -2.45346988295313   -8.17404648424019    1.70877506305847
H          -1.69266693118846   -9.53004427340748    2.55357716442261
H          -3.41431063513396   -9.57894896697029    2.16907701745185
H          -7.08709147678727   -7.18431717000167   -4.40491628297451
H          -8.14378961214191   -8.51718061445733   -3.88929265730514
H          -5.96872267167139   -8.63342326906147   -6.05318134190166
H          -7.70899995166479   -8.62859952236259   -6.34439290817341
H          -6.94418011663289  -10.01978780309422   -5.56400693317403
H          -7.84076816793809  -10.70221047006986   -3.40621213676128
H          -5.96848385658778  -12.18525538929371   -1.48090489017451
H         -10.05517432875961  -11.65247447007643   -3.56145111986126
H         -12.17296530455511  -11.53976435202627   -2.30866478141676
H         -11.53569442505384  -12.62580227570770   -1.06471452597978
H         -11.79169058259713  -13.36931797474514   -4.01821605480913
H         -12.99027876512446  -13.79602060674205   -2.79581547580588
H         -11.51208068936618  -15.26891930380753   -1.64900807051598
H          -9.58814800105868  -17.28443661586193   -2.58383357183830
H          -5.01071469350526  -18.20955663884967    1.66123966236103
H          -6.87257260485671  -21.72089482883914   -1.33884794119004
