90
 SCF done       -193.932104477504          0.000593564888
C          -3.30787500603719    1.20450065536631    3.67505532828257
O          -4.18016958275876    0.72346455646256    2.98242314002309
C          -3.46372684238121    2.33985543156958    4.60495434313835
C          -2.22519680054863    2.63540730425834    5.20104738126200
C          -2.14076712587898    3.66687261297551    6.12247636201915
C          -3.29223147487977    4.38318888027569    6.42908381720284
C          -4.51709162325202    4.08313972821487    5.82701701024151
C          -4.60798993201170    3.05024993137132    4.90347965689952
Br         -6.06501295061890    5.07458990922071    6.26200326298609
Br         -3.17641957679577    5.78535804514992    7.69068456594886
C          -1.21609671462706    1.71685199456556    4.67793317939919
C           0.12178563256839    1.77193655497605    4.95593949655434
C           0.70573278105035    2.71914968913354    5.82667209696273
N           1.23546160597615    3.46091058316038    6.52301626339539
C           1.11786202120707    0.93325446842779    4.40711206370552
N           1.99603565382174    0.31457020029229    4.00415319010082
C          -1.89444086510599    0.79028716047289    3.78293210078559
C          -1.33589653221498   -0.31570611540368    3.21136331822450
C          -1.91048345588214   -1.26724906213890    2.34261770956778
S          -3.51014931722493   -1.27307802609629    1.60764932510225
C          -3.01453578672824   -2.76189278339474    0.84168017954902
N          -1.78679211348008   -3.12545201124412    1.17119000474816
N          -1.19770817233546   -2.31269187775409    1.97469082872335
C          -3.85064803023374   -3.49204890886124   -0.03893726460024
C          -3.45764023051432   -4.68019382030238   -0.56640983647777
C          -4.18939673980955   -5.50119584081737   -1.46045450689239
C          -5.25098541229861   -5.10444149038720   -2.38382725378684
C          -5.59487330146486   -3.84300486014092   -2.71380442451900
C          -5.79851804275534   -6.31942325068134   -2.98101598606617
C          -4.99098156719470   -7.41077870445887   -2.52194527475488
C          -4.01331035006739   -6.87639741394988   -1.58475634290553
C          -3.08269434672454   -7.70632214759926   -0.91428066154671
C          -2.98189850829210   -9.03323941759341   -1.13707532705856
S          -3.93800579036985   -9.91163362351433   -2.27798051651863
C          -4.99363770757322   -8.72505505647704   -2.90344224530221
C          -6.88962525855243   -6.30734610025114   -3.85406656448344
C          -7.64462424520956   -7.38961253732924   -4.22201748317108
C          -8.67488427601497   -7.46260293067518   -5.19628042657313
C          -9.50630576078158   -6.42901763609535   -5.72239340422760
C          -9.61075696421435   -5.07215134029585   -5.17136527808507
O          -9.10531877482955   -4.60126378537614   -4.19341003890225
S         -10.73870244864020   -4.09062214486326   -6.18177127437671
C         -11.14456425739824   -5.46692954356156   -7.21621679673737
O         -11.91396854401212   -5.37439183322855   -8.13487815362354
C         -10.40159062361886   -6.66488440959943   -6.77170393795859
C         -10.63204152226357   -7.93431383405020   -7.33779613857590
C          -9.85257702169487   -8.96112732201347   -6.78671218971989
C          -8.92271866527545   -8.73005754874751   -5.78015501132995
C          -8.21679586628916  -10.00306093493663   -5.54200491280679
O          -7.32314997423701  -10.27100452875845   -4.78917617798138
O          -8.74177355135729  -10.93537527006415   -6.39649452240637
C          -9.71912763940823  -10.38232696226433   -7.18916985022535
O         -10.27332483885312  -11.01207474336024   -8.03589961198978
C         -11.62326276942911   -8.12807198969492   -8.37205683856148
C         -12.47586052416212   -9.16420862141250   -8.42833760263681
C         -13.48543961595195   -9.29162401592331   -9.43965676933442
C         -14.25735170548564   -8.31825700195922   -9.97087384180130
C         -14.99611630479796   -8.57276869329244  -11.24504380382821
O         -15.19320555352914   -9.64182192800137  -11.76639492537775
C         -15.37021315230584   -7.23145854839492  -11.73997085100600
C         -15.02976510143642   -6.26191337610793  -10.77793847017793
C         -14.48269983176277   -6.92702257101261   -9.59861521992630
C         -14.43696040667881   -6.38289323794041   -8.34860471941138
C         -14.05510081729920   -7.06812012354558   -7.17637634029472
N         -13.76865619204505   -7.54887338015968   -6.17458122170385
C         -14.82675612499143   -5.05491623632598   -8.05779006539585
N         -15.14557511683385   -3.99317596631198   -7.76600263889987
C         -15.24016243611568   -4.91937477535251  -11.04588566701309
C         -15.80521754109684   -4.56687163144150  -12.26540219226592
C         -16.16239902456018   -5.53708272928403  -13.20667325614029
C         -15.94039228913472   -6.88304283559053  -12.94795638232005
Br        -16.94280978026531   -5.02876089274289  -14.85016877656759
Br        -16.08268665626030   -2.73701983274825  -12.64217934469804
H          -1.21586324644800    3.92754708832484    6.61046831108390
H          -5.54715331349851    2.80648941700929    4.43146914239031
H          -0.30442172072738   -0.55488908627144    3.44010835119814
H          -4.82918870525728   -3.07884917866494   -0.22669742660102
H          -2.50114260747839   -5.05699477977947   -0.22732334241230
H          -5.07949135406566   -2.99243820657575   -2.30806161275031
H          -6.38051290862173   -3.63325075621948   -3.41760284373855
H          -2.41771971595125   -7.25463582662330   -0.19255158094457
H          -2.26794417752594   -9.65284560476094   -0.62074145959223
H          -5.64800454334910   -9.13124536354132   -3.65666027330435
H          -7.15592583807066   -5.33765708910733   -4.24177974699514
H          -7.41519961850530   -8.33963185239138   -3.76940800272725
H         -11.70662589773701   -7.33594467360058   -9.10366138746787
H         -12.40174631080632   -9.98101769303011   -7.72537214398808
H         -13.62017267738907  -10.28419501311427   -9.85911986710979
H         -14.96345490020958   -4.14850510491449  -10.34471231515786
H         -16.20399508208909   -7.63839777960056  -13.67193808554090
