80
 SCF done       -160.094093048279          0.000809034807
C           0.89242148787452    0.40570459982509   -1.56890325053855
F           0.10730830373972   -0.42319506145883   -0.89343762987490
C           0.45657121982517    1.36213422350554   -2.46214310832767
C          -0.85534487364409    1.67977886403257   -2.85903688603479
N          -1.93168706946203    1.91938704255200   -3.16717361423544
O           1.51325697127660    2.02115888351202   -2.96296673097113
C           2.63263518610602    1.50375698426371   -2.40616008622204
C           3.89489521785457    2.07295078431632   -2.80689733058664
O           4.97779363819227    1.71942328244181   -2.40143241161007
C           2.31196278284303    0.47422448264739   -1.51098260368963
C           3.16587046570076   -0.34353289363454   -0.70879252471354
S           4.90072558349101   -0.20955273602040   -0.70995030668794
C           5.04560837097675   -1.48666866597378    0.45258311076530
C           3.78548703426733   -1.98334155788162    0.81577672256473
C           2.73684347638571   -1.33252902801823    0.15542271745893
C           3.54190670626606   -3.01990507362095    1.73240654062809
N           3.30204441616728   -3.86342253181974    2.47328834560005
C           6.33892124959019   -1.86581503483731    0.88816233482253
C           6.60048456277799   -2.83796540831126    1.80402482426702
C           7.91082470845332   -3.16909038743374    2.21871520435745
N           8.18750635172091   -4.14246434542359    3.14580530010518
C           7.23873735933003   -5.02770034249113    3.78036322938781
C           6.79902359752036   -6.15216020725104    2.84697523679747
C           9.56622093931588   -4.25127193606526    3.40058352038298
O          10.04327249712940   -5.03988652393507    4.18909101085571
C          10.16862166541142   -3.24594429771874    2.54764480618209
C           9.13296603162800   -2.60479284169923    1.83554281231747
C           9.73121304292811   -1.59777120014699    0.98408762159112
O           9.24941291132750   -0.81145817239053    0.19380093608407
N          11.10667692677076   -1.69992677412476    1.24108400872252
C          12.05097273096642   -0.81848037440320    0.59681380438942
C          12.45797777544253    0.34110244170019    1.50262350863724
C          11.39028114994354   -2.66927643147741    2.17753221594683
C          12.69020546924804   -2.96243297009027    2.63558244633706
C          12.94835899687232   -3.92696175817272    3.56816060400119
C          14.23032215614418   -4.22158362494569    4.07947803640139
C          14.51367699445851   -5.18474241405634    5.02986884469050
C          15.90045095760005   -5.14797346967406    5.34037880934709
C          16.48407302759076   -4.09740565844929    4.47865427565182
C          15.48686404997120   -3.56122165027490    3.73319756025286
C          17.83653435999591   -3.74983032208130    4.36281615354023
N          18.93230086980931   -3.44734296012771    4.20055389738172
C          16.58051802386547   -5.90048092784432    6.26860521843892
C          17.93989054032408   -5.72771380024877    6.68794212666561
C          18.23093959153864   -6.67170906303360    7.63677466032495
C          17.05460864493051   -7.50180232813649    7.83613517491971
C          16.05436398149271   -7.03404003917296    7.04047361076913
C          14.76864471392522   -7.58021122298697    6.96049728645293
N          13.72267086298563   -8.05266882931225    6.91692114130579
C          19.47182747571888   -6.86785862100850    8.33189285166408
C          20.51104958083987   -5.96603273085215    8.58310625065969
O          21.51283533623011   -6.57446503559047    9.25767684479704
C          21.16577025898893   -7.85585542788675    9.46269884793514
C          19.91589678327427   -8.08017017840828    8.92016538008571
F          19.26671698129043   -9.23731624047375    8.93404083264638
C          22.01939750559394   -8.74284376999592   10.14115294752763
N          22.69460604000659   -9.48515519221198   10.69348087532542
C          20.66923386655782   -4.53798431016988    8.36627003397900
O          19.87182304763918   -3.80107949882860    7.84593253987577
H           3.78120043752743    2.89210594076100   -3.53637671075021
H           1.70506555066791   -1.58866888570799    0.31646874466301
H           7.16246498819662   -1.32152169862339    0.44250792443973
H           5.78637698201379   -3.38545082665670    2.25297397488970
H           6.37523630785059   -4.45417564499574    4.12718300871988
H           7.75478642001115   -5.45032787954763    4.64675106532898
H           6.30703305999754   -5.75612755989430    1.96152061720029
H           6.10312751542092   -6.80401662006157    3.36656220160602
H           7.66057649050738   -6.73814748133714    2.53608326901091
H          11.54326847942248   -0.42784326446731   -0.28951811048577
H          12.92529475883794   -1.39165406717131    0.27615436753519
H          11.58276754578204    0.92961632067965    1.76617477529254
H          13.16370504641048    0.98298704839545    0.98281605874989
H          12.92025804249208   -0.01895687384213    2.41919402161684
H          13.50414842568468   -2.38459248094964    2.22288995396736
H          12.12802056118729   -4.50939446876176    3.96711313782295
H          13.79610248367585   -5.83726418892616    5.48784203935215
H          15.60379915081185   -2.78228779120256    3.00297978076058
H          18.59858962977542   -4.96436171122933    6.32719893130197
H          16.98961996479986   -8.33430686365408    8.51147218536008
H          21.63296375306570   -4.17407799485049    8.76685901860563
