117
 SCF done       -234.695626555953          0.000808405107
C         -10.60702788405869   -0.40465957648818    0.00884227644930
C         -10.51782127640312   -1.42740236151890   -0.89563762174617
C         -11.51491154405782   -2.41203065613128   -1.06316052800243
N         -12.29618123171097   -3.23293499846260   -1.24212140425082
C          -9.43095522643559   -1.62043070169258   -1.77522003401561
N          -8.56299175683692   -1.85018850021407   -2.48946478061836
C         -11.65671286636914   -0.21638566073014    1.00178456538152
C         -11.46627705843883    1.03564110918130    1.64564988345663
C         -12.24432811177372    1.45508536613463    2.69921690155860
C         -13.23066955499816    0.58293629397833    3.16614301046796
C         -13.41605802031514   -0.66579226158374    2.51809327331294
C         -12.65234924268458   -1.07378556524024    1.43060755624830
S         -14.65318495585055   -1.59352558771081    3.29630930486268
C         -14.89568862246325   -0.34305462293596    4.46357664375988
C         -14.09950026836595    0.73325207342232    4.28087998930804
C         -10.27202273667352    1.67938394386859    1.09828577336190
O          -9.89987353991886    2.82547089456892    1.24918558626721
C          -9.63174943290994    0.64813332518395    0.23004315680072
C          -8.33062413824447    0.73139155881960   -0.17377822225000
C          -7.39146027536953    1.51754164832001    0.53799645540739
C          -6.34113871894769    2.29878270862955    0.08126218653816
N          -5.96318849125823    2.46929560856912   -1.26511300298541
O          -4.99817114611737    3.17457878551549   -1.49176425272659
O          -6.62050552113902    1.89376319906575   -2.11441216516446
C          -5.74940264364693    2.98803570689965    1.18673679266818
C          -6.44219276353953    2.67021140742940    2.32255119311323
C          -7.45157611806584    1.72210618356357    1.99586083181049
C          -8.28969380238931    0.98586759683215    2.82907002745552
C          -8.63219936046332   -0.38805059497471    2.64545431215183
C          -9.49009846061761   -0.77451554808058    3.63457834274615
C          -9.76477534303222    0.35361643235878    4.46185148952609
N         -10.79225427130877    0.35673743247401    5.41502174865497
O         -11.34504408251381   -0.70791153790089    5.64636098018648
O         -11.12333532955313    1.41727195618610    5.92222913161055
C          -9.00389556639449    1.44965783294474    4.02721377754006
C          -9.02640263261756    2.74818377453422    4.55846778026516
C          -8.72496865545664    3.88724338707921    3.85598471501498
C          -8.66998396216273    5.15489455237895    4.45009269460788
N          -8.50075112219105    6.32496128810870    3.75479825870149
C          -8.41274241960556    6.46795436186622    2.31877844959691
C          -9.76308829111066    6.28261931444303    1.63358901259190
C          -8.45314490097343    7.44615782832298    4.60450006839811
O          -8.30333328706674    8.58584817924694    4.22991797849207
C          -8.59796309428255    6.88047008392880    5.93582628023934
C          -8.72214836981695    5.49355674764219    5.81928949715618
C          -8.80648740606430    4.94700749951550    7.15979383390769
O          -8.87218372039630    3.81106942297506    7.57133723783922
N          -8.75135926194894    6.07793696291613    8.00847095446346
C          -8.85367563576105    5.89514111563030    9.43629390204634
C         -10.28052442267747    6.11837578272059    9.93312186277831
C          -8.61930628283809    7.24284294986862    7.29502919705817
C          -8.44716871730885    8.57472382749997    7.71501378700741
C          -8.52627471621852    9.10663067712863    8.97241932808869
C          -8.24940162966871   10.44551420036604    9.30753736974197
S          -8.89989764664232   11.06300432325256   10.79071413956915
C          -8.35276571830363   12.67145987705074   10.48985709614369
C          -7.57183670640624   12.70802767153135    9.31584001310026
C          -7.51123798972840   11.44963740712480    8.64180181560300
C          -6.69859245058963   11.31877777648755    7.50298959092058
C          -6.00714555478590   12.40482723461134    7.03192821894839
C          -5.11295417213714   12.28128555480232    5.82658763079520
F          -5.09780460619057   11.04072049389927    5.32400415843342
F          -5.47960177623025   13.09989002745311    4.83233896538035
F          -3.83500683719805   12.58071322381090    6.12353406754826
C          -6.06734369786463   13.65559826855652    7.69762939645845
C          -5.33485741851527   14.77450903270766    7.23102190741099
N          -4.76742324266067   15.70927436393862    6.89249040460921
C          -6.82437239912497   13.79417896391612    8.84130141911653
C          -8.69335411567774   13.69986882709068   11.39445975372642
C          -8.83542518367006   15.03812811138276   11.18365471826009
C          -8.95812808726592   15.85337376603523    9.99346924172174
C          -9.46100871769370   15.45157630962168    8.78123642058310
C          -9.65380448726760   16.31775546109752    7.68487376587709
N          -9.82143796953697   16.97951617321632    6.76302845777212
C          -9.93073758382240   14.14948292776184    8.52866463508272
N         -10.34954892834944   13.10417615003975    8.30337222818403
C          -8.68619963068087   17.23068372539793   10.38373803857297
C          -8.63531077673920   17.30252335870808   11.80204826238677
C          -8.81422927590958   15.95566548987318   12.36432635285811
O          -8.88293604827034   15.62384893260881   13.52473414647336
C          -8.43292216241634   18.48607282355226   12.47087426075236
C          -8.26034446185962   19.64568194429555   11.70896099953152
C          -8.29359218249673   19.55908819909377   10.29427128922621
C          -8.50719277276268   18.36448393317988    9.61587672266722
S          -8.04333238368905   21.11019509144606    9.56320929847725
C          -7.90557068242389   21.84887380022957   11.11999782115352
C          -8.03675878161687   20.98038891443658   12.14729316211572
H         -12.06822263440111    2.40518359456856    3.18035960469703
H         -12.82364797353611   -2.03617328404965    0.97727079565215
H         -15.62737820429201   -0.49487664682014    5.23289230728299
H         -14.09505954730566    1.59885045475534    4.91773671364640
H          -7.96890275206164    0.17409898626823   -1.03018590120436
H          -4.90475159625406    3.64470063855220    1.09663057598224
H          -6.20465219239746    2.97932550335983    3.32275203130462
H          -8.19601515400470   -1.02423371148310    1.89872687635557
H          -9.91973768567896   -1.74657707971640    3.78564458559023
H          -9.37024719311825    2.83609531595717    5.58430361484815
H          -8.58850708843467    3.82326771835220    2.78700453977769
H          -7.68248397379725    5.75455280795795    1.92636551246938
H          -8.04511320780979    7.48324652700502    2.14563459369062
H         -10.11675184932683    5.25937168959625    1.72731381737402
H          -9.66334509011876    6.51392439316547    0.57706965399151
H         -10.49914234600936    6.95571313407082    2.06685348947857
H          -8.14002558200664    6.55173284876654    9.93965731423085
H          -8.56788791304540    4.85629865930339    9.62732575141784
H         -10.64735468600948    7.10573099108372    9.66060668539225
H         -10.31511008072789    6.01435029197182   11.01398182120063
H         -10.94065543726981    5.37520631501518    9.49322591300488
H          -8.26765069356607    9.24176557397086    6.88320093831986
H          -8.88983346710415    8.50655393652826    9.79337876392261
H          -6.58470370565014   10.36616556686753    7.01344970619780
H          -6.80590263171492   14.72777508209016    9.38121894830833
H          -8.84554134822289   13.39219979012789   12.42593786790378
H          -8.40873477777088   18.51525792980395   13.54906659319901
H          -8.51524503766996   18.34264045350028    8.53850916897840
H          -7.73086880806187   22.90597203622441   11.17254838694042
H          -7.97925500519415   21.25965747942489   13.18362554489203
