110
 SCF done       -215.167626801428          0.000748885039
C         -10.57270723365424   -4.25566332357742    2.67710613739773
C          -9.23410444332037   -4.28885498063956    2.95987932392843
C          -8.50413009913797   -5.47291559026904    3.19580158443637
N          -7.86160481926972   -6.40295600780081    3.39283816619320
C          -8.41286802248967   -3.14234764116339    2.99011081139896
N          -7.70941961225431   -2.23491369145650    3.00378107626126
C         -11.46415756194495   -5.39682192959152    2.54453431347982
C         -12.71094703629790   -4.95798527761102    2.02407109458176
C         -13.75975049783198   -5.81637553605509    1.79980360679307
C         -13.57628574655139   -7.16630769395829    2.11240299409543
C         -12.32970716911829   -7.59474357805358    2.63331435420981
C         -11.26526507931433   -6.73017547691512    2.85286460633304
S         -12.33414730514592   -9.30061061465731    2.94949079140307
C         -13.96751693659991   -9.42433101801346    2.39472141848751
C         -14.49318009088994   -8.24758285701074    1.98928569499044
C         -12.65600375874305   -3.50786969823215    1.78803135845302
O         -13.41277812230537   -2.82434839855277    1.13936803452757
C         -11.37021240975447   -3.06750262536228    2.41798404785109
C         -11.10516531447145   -1.79162141286429    2.76835080541098
C         -12.04692504054827   -0.71322368495835    2.68777744081651
C         -13.36438531178383   -0.66260421737422    3.11177880812573
N         -14.13416332214348   -1.66227605517597    3.73253928786244
O         -13.62339792515135   -2.74857280808262    3.96996189498137
O         -15.27710854782215   -1.37538102884451    4.03762872391161
C         -13.86909135258853    0.67814203639807    2.93743607699998
C         -12.86736910857307    1.45979749699711    2.46960655931070
C         -11.68850543282809    0.64983880029090    2.29840954099191
C         -10.48053085348362    1.03401389642662    1.74815091158290
C          -9.58375711389883    0.19829712831968    1.02488988475551
C          -8.67453589806455    0.98013405049911    0.36579924339458
C          -8.90268533020247    2.34560790482662    0.70091061779857
N          -8.10863358453513    3.39266259731219    0.22286958020586
O          -8.35060437665578    4.54196313291118    0.59315373390109
O          -7.21430676993820    3.11659049120319   -0.55558296372784
C          -9.97771103324572    2.41639414655389    1.60822267054211
C         -10.32110067988938    3.55856814284006    2.32483759348261
C         -11.05810154242074    3.66089252346972    3.48482174586089
C         -11.32109187353288    4.88456286552256    4.09375493615496
S         -12.35245319346238    4.95021451582418    5.50940781843191
C         -12.30722296900858    6.69299911706080    5.62734076379442
C         -11.46864306067817    7.20718146451897    4.61573707642228
C         -10.93089358691478    6.19792521040636    3.76901973465231
N         -10.13998337418361    6.79405230286349    2.84566616088619
C         -10.15093391392928    8.14876608529886    3.07825316923290
C          -9.42233532725988    9.05388682796116    2.28964171004537
N          -8.83928246665648    9.81392964475390    1.66036779035665
C         -10.96303634886599    8.44113976290153    4.15820121916475
C         -13.08301788365991    7.31514030731513    6.60644424895678
C         -13.21679791401391    8.67062548906341    6.77539224487305
C         -14.06513857948966    9.27271316266817    7.71838920496161
C         -14.26147400807564   10.64170743143040    7.86770810736735
C         -15.22429021260773   10.87116152097705    8.87601624099821
C         -15.62442882331303    9.53845006630549    9.37086831072934
C         -14.92951418938200    8.60024978134153    8.67826806858872
C         -16.57763051941532    9.25838150734947   10.35818555809862
N         -17.36821543453953    8.99422053785331   11.14869314646738
C         -15.72696237865888   12.08080690452670    9.31829888006261
C         -16.69067242049516   12.28129661780938   10.33382834466408
C         -16.93733919429400   13.63558440712783   10.47401518448799
C         -16.09643394179426   14.33711229183383    9.51201298075596
C         -15.37158484990155   13.42437657320063    8.81542706139217
C         -14.46011179053365   13.71276175464044    7.79440932638822
N         -13.71879106219418   13.96766119234513    6.95428444480838
C         -17.82263999988107   14.26730803484703   11.37797090604126
C         -18.62024048630430   13.58007232461022   12.24374083259770
C         -19.48933167626664   14.19679841594480   13.16777475736330
C         -20.17197897634839   13.56855162843617   14.16671825684217
C         -20.07267221472949   12.22324580667231   14.69392160817869
C         -18.94235340246284   11.45004546145361   14.75760240096819
C         -18.89820006774277   10.18317368416363   15.37889681118400
N         -18.81208607326647    9.15147285968326   15.87333766256606
C         -17.66204834612708   11.86678846516247   14.33381023365195
N         -16.59120253378791   12.17002785066816   14.05358421368924
C         -21.33718148829251   11.93164021682254   15.36028601487048
C         -22.09074219371198   13.13188447899689   15.45592711871344
C         -21.35560447133591   14.22398849457112   14.79548364572429
O         -21.65501866373380   15.39303121153499   14.71906199484974
C         -23.32099400746918   13.18053287353452   16.06728146395616
C         -23.83546025090435   11.99318009209998   16.59652169201165
C         -23.08217633755684   10.79885460323907   16.48136194530750
C         -21.83409496072540   10.74888492291628   15.87102960107548
S         -23.91915255788510    9.45655827820578   17.19147096757670
C         -25.24049887039068   10.48182913236265   17.63184568006119
C         -25.07166177109115   11.77139158887226   17.26624839444600
H         -14.69655212573683   -5.45437668383503    1.40617650841660
H         -10.33711599493124   -7.09957474866243    3.25721654104359
H         -14.44134510491495  -10.38666929239020    2.40794883741364
H         -15.49427619971425   -8.13213230289114    1.61533744131224
H         -10.13355306156997   -1.53022966210644    3.16990018229677
H         -14.88235511863682    0.95762787069751    3.15290297057887
H         -12.94659881528920    2.48529284100685    2.16550711250483
H          -9.68961426794011   -0.86320294788608    0.91772134652759
H          -7.90297339698712    0.65104081520200   -0.30466405354838
H          -9.87087857397105    4.46115704206892    1.94304939554511
H         -11.44553293183266    2.77678669832778    3.96985652201409
H          -9.58521838183592    6.35606861239184    2.12318482319155
H         -11.13900512313856    9.42328987247530    4.54621428103051
H         -13.63690990660455    6.64991882901139    7.25449779273009
H         -12.66534355488095    9.34031352012248    6.13251745993323
H         -13.76676215699533   11.40725919873320    7.30243532455563
H         -15.00761108245507    7.53808477051510    8.81423757033272
H         -17.12875144642852   11.49418056343150   10.91220521727930
H         -16.07120158477055   15.40395034693096    9.38632195823768
H         -17.83306236667320   15.34978337327603   11.39203843530309
H         -18.60936277615193   12.50053780033264   12.21050175405089
H         -19.69943876744883   15.25400295379685   13.04449681466621
H         -23.87013139460826   14.10692883550812   16.13286614587406
H         -21.29996233872022    9.81593887598295   15.79801281616542
H         -26.07643973223074   10.04790048842221   18.14524027452265
H         -25.78804064545909   12.54997736011616   17.45596702270177
