110
 SCF done       -232.714553066031          0.000419181291
C          -5.17895324062565   -2.45685760151584   -0.68047228002252
C          -4.35554225176813   -2.84004180258950    0.34386149526886
C          -3.85460574836652   -4.14957602910570    0.50768954475199
N          -3.41467204219972   -5.19420083179197    0.68666506974170
C          -3.91710707888790   -1.99899501260130    1.39017960797908
N          -3.54287810649588   -1.38998550866264    2.28801584952600
C          -5.72192615567990   -3.32947710469747   -1.71290985790154
C          -6.60343362244807   -2.57985702038606   -2.53141648410762
C          -7.28389609953712   -3.13453346055614   -3.58885795301636
C          -7.09383075495853   -4.49554364469342   -3.84682616822929
C          -6.20781343676906   -5.23624425420387   -3.02648008077071
C          -5.51447594491923   -4.67420294610592   -1.96219324586995
S          -6.11582133583583   -6.89783704411985   -3.52295010154571
C          -7.25552760559666   -6.58258064140578   -4.80457045702103
C          -7.68263138875046   -5.29811635444900   -4.86122717402298
Br         -7.77439465874978   -7.97665676575456   -5.94529888590697
C          -6.63226998821450   -1.17933385515355   -2.07557409061789
O          -7.17820664091908   -0.25144471657632   -2.63126256334315
C          -5.74182038795860   -1.13125873125746   -0.88033226713382
C          -5.41121929091869    0.00495460217054   -0.21466677838224
C          -6.11749821767510    1.24369886350796   -0.32722126235151
C          -5.42794440488591    2.47369641185926   -0.26421558986442
C          -6.11686091330946    3.72217296258707   -0.42320463890498
N          -5.41401516519016    4.84828870196156   -0.58705897492837
C          -4.12581355763248    4.83369886147252   -0.36088875186473
C          -3.46006984074603    3.60920196216758   -0.01456673212924
N          -4.09910529288440    2.46966390536486   -0.05743795184983
C          -2.07677614201387    3.62571818620939    0.29857205154192
N          -0.95860141802946    3.68622941493207    0.53680272409559
C          -3.41619344856621    6.05415013456072   -0.47373974804874
N          -2.85926264526446    7.05412704916017   -0.51632061721558
C          -7.53219381649967    3.80685695415974   -0.47181451218684
C          -8.22649485616453    2.58447305850960   -0.45897232201240
C          -7.52191031566996    1.32131047527350   -0.39284227932504
N          -8.36666623174640    0.29386804735376   -0.28664257380005
S          -9.86666990086458    0.83924156785666   -0.30138097113805
N          -9.55058586982384    2.40852180723866   -0.41025445978743
C          -8.09957866177121    5.11636030945977   -0.39805145755103
N          -9.21285647481976    5.59003620046988   -1.02239778915375
C         -10.01220184398088    4.91057081733829   -2.01453548478275
C          -9.22038383006484    4.64230836456950   -3.29047792580441
C          -9.41443897881286    6.96447274922811   -0.75076562275083
O         -10.32635722028349    7.60646920675660   -1.22348972005678
C          -8.33787002611593    7.31616706092217    0.15305896603434
C          -7.54839893120040    6.16694773449812    0.34733420648219
C          -6.52836438089363    6.48103853502726    1.33656191247810
O          -5.67855045317182    5.80534942973865    1.87608146059692
N          -6.74029125371389    7.83895107042995    1.62422154746917
C          -5.84590531193313    8.56250131499282    2.49900025532101
C          -4.85034845309989    9.40874533182817    1.71059106805243
C          -7.81094850326662    8.35407268673745    0.93909917169587
C          -8.25108547691618    9.68526454264157    1.08438933686011
C          -9.28719818677974   10.20710142287380    0.36507493630378
C          -9.81213240924286   11.51914589818568    0.48924933576403
C          -9.46975970560870   12.47577170732676    1.48614468605253
C         -10.06309071878314   13.78805280015633    1.50985968865399
N          -9.74767423646305   14.65210946454797    2.48932042100821
C          -8.87208231814665   14.30581028263806    3.39685740759127
C          -8.25165484736016   13.01645907100571    3.35452903403046
N          -8.57841844522147   12.14562984812382    2.43031759673034
C          -7.28948533894987   12.63393809110636    4.32280677302960
N          -6.50997146768590   12.32437680386825    5.10270303247026
C          -8.55646420629322   15.20752182397846    4.44625322624573
N          -8.27147724067225   15.90090063936845    5.31140453653916
C         -10.95411232950645   14.24042913562553    0.50644436589145
C         -11.32482304261215   13.28526565736142   -0.46050279818139
C         -10.77650989872127   11.95047778171493   -0.45113934147144
N         -11.26865265506836   11.21240487010782   -1.44591329152394
S         -12.30889682733601   12.07994907095276   -2.28795470642137
N         -12.20156669376783   13.45056681045907   -1.45503184792717
C         -11.45624096978559   15.57307247982057    0.55730888526132
C         -11.91692403177524   16.35538274224816   -0.45174613974432
C         -11.83000399651879   16.24965803035943   -1.89236658374718
C         -10.83453144765046   15.63071217546522   -2.60183874467879
C         -10.77139744193094   15.60106862971223   -4.00966112023010
N         -10.68920869560001   15.52246666153024   -5.15178732343639
C          -9.73051494682524   14.99060546841435   -2.00632809427614
N          -8.80684371133218   14.46815396170208   -1.56743698475159
C         -12.85582730392766   17.11941098591890   -2.45293214971138
C         -13.40322124357444   17.91225355954347   -1.41146302219787
C         -12.77722283217993   17.53388865802014   -0.12952130779276
O         -12.95108078032958   18.02588642616154    0.95878198594910
C         -14.37281028342266   18.85904724527470   -1.63764099294353
C         -14.83030172315161   19.02446733359339   -2.94933323994638
C         -14.28695324785683   18.21826241042533   -3.97954791907084
C         -13.30103184409399   17.26592564851428   -3.75294388145249
S         -15.00298547945293   18.58123257659836   -5.51941042321528
C         -16.00539816147601   19.79719444473807   -4.77221832759506
C         -15.81613376762588   19.92492655071202   -3.43700844544254
Br        -17.20709160099054   20.77859436474110   -5.82415166106506
H          -7.94603802060715   -2.53707494100173   -4.19571966103329
H          -4.84679712752003   -5.27849099340382   -1.37127159970602
H          -8.38367155208742   -4.93108451698697   -5.58835743231734
H          -4.53483894746449    0.03126478129549    0.42009248669906
H         -10.85181858097468    5.57808940215867   -2.22583468250266
H         -10.38586612388560    3.97449538374020   -1.59224781264289
H          -8.82554737981872    5.57157108659100   -3.69498387319060
H          -9.86967931523033    4.18785788255722   -4.03328850976374
H          -8.39047311050613    3.96578770314273   -3.09785192322464
H          -5.30919227774863    7.80450592823039    3.07556705792215
H          -6.42588903419783    9.18268556328494    3.18765276302012
H          -4.24403449857571    8.77659310550238    1.06545534555034
H          -4.19410723863373    9.93121358120340    2.40042165868775
H          -5.36475195073163   10.14263429446769    1.09429875470776
H          -7.73898193982774   10.30860543140235    1.80049659010734
H          -9.77203206680384    9.60057537306620   -0.39056863141023
H         -11.51389729082950   16.00689371329059    1.55121503886042
H         -14.76608863807793   19.45477278616597   -0.82895972588783
H         -12.92028146909464   16.67041600748924   -4.56613475604342
H         -16.34938174993353   20.62479189781626   -2.81998514730921
