94
 SCF done       -197.271924313692          0.000836009411
O           5.00100803547804   -7.06056276404236    0.11678709080200
N           5.53991878026614   -6.98565944938163    1.33444761866330
C           6.52095099674015   -6.11588294230538    1.29427295432200
C           7.30866135508785   -5.78862508145778    2.42057121492453
N           7.94407014127860   -5.50733984130873    3.32765723971316
C           6.64354742395247   -5.57561817974987   -0.02174480419295
C           5.64442431280340   -6.23539050122537   -0.71641573566379
C           5.26766911266732   -6.10109349708041   -2.06604057303366
N           4.97863142646439   -5.94898553866995   -3.16312368687059
C           7.64607612484973   -4.63561573874663   -0.52329945633319
O           8.46242345809860   -4.05635751579284    0.13094385136661
O           7.46402445329876   -4.41315706999111   -1.86993765743774
C           8.57439510601595   -4.10384873350097   -2.58253299953376
C           9.79597799029040   -4.73117339323403   -2.49540727999576
N          10.08383846314464   -5.88288476487562   -1.74747907349125
O          11.21364964377135   -6.31817161133311   -1.76639791955249
O           9.15199810053048   -6.39937929682538   -1.13332989738719
C          10.71813472210235   -4.06538023424349   -3.39163830342530
C          10.07941106280392   -3.02018584711685   -3.96319592022707
C           8.71058852650734   -2.97859018350472   -3.49211586442952
C           7.69143208924172   -2.12134482448319   -3.84394445915487
C           6.29703624872627   -2.42926389119006   -3.78671120940919
C           5.61340713134072   -1.48599716119659   -4.49520066913950
C           6.53547010307059   -0.49345257585636   -4.96137296803261
N           6.12734984303641    0.68209674475297   -5.62447933673526
O           4.97500113473564    0.72754268349334   -6.01302406859055
O           6.93824020325487    1.58226048620010   -5.76000197727498
C           7.82408000100946   -0.82511499320892   -4.54777450027903
C           8.98399673761322   -0.04603318639729   -4.68530584238860
C          10.03179686470764   -0.05925213122148   -3.79858312721131
C          11.18915412622082    0.71149000726780   -3.99014242616396
N          12.17098293680420    0.89598962058113   -3.04990726716738
C          12.21095981114147    0.32575886088577   -1.72241320052218
C          12.69910224182500   -1.12028064225022   -1.73974147813822
C          13.20831308005641    1.72491478043268   -3.52045718166731
O          14.17670354633992    2.04172401279063   -2.86960035204386
C          12.80457291570144    2.05172440856248   -4.87773870019083
C          11.58317472407280    1.42587739165292   -5.13953137192099
C          11.23026021986611    1.71354961511631   -6.51803484749535
O          10.30600245823221    1.35225277463266   -7.20779552926108
N          12.28003258295285    2.53801078118888   -6.98912136192038
C          12.20844621239942    3.06440866617452   -8.33267316570072
C          11.72410345659190    4.51189272206047   -8.34865885207082
C          13.22913265749870    2.75139324411008   -6.02440441741653
C          14.44083178976137    3.47104863590125   -6.05347563939062
C          15.00004702815979    4.19492575419705   -7.06706322808124
C          16.24928546221888    4.84872437640504   -6.97499673973566
C          16.84398623811270    5.55932255993270   -7.99988187416138
C          18.09897223796857    6.06946668608573   -7.55758880798245
C          18.24342427403096    5.62072841013758   -6.15724084127148
C          17.14635293909210    4.89629278298279   -5.82394773413644
C          19.33036792922483    5.86676205496291   -5.30666034256991
N          20.20588719126431    6.03939341935565   -4.58522528287102
C          18.99925324574099    6.81277491564702   -8.28001213621476
C          20.25332731172538    7.34410135475321   -7.83579874952707
C          20.83213218309480    7.99368073125864   -8.88760295180812
C          19.97385037419996    7.91163484324057  -10.05294707466394
C          18.86508616941659    7.20722980214486   -9.69642286115787
C          17.79694692550917    6.91337874699127  -10.54998359155677
N          16.92779908475618    6.68295117754673  -11.26490998678837
O          22.03165430385453    8.62667731676179   -8.77276285399447
C          22.71946834663654    9.10663325512768   -9.82314069298374
O          22.41151230790217    9.02218361272109  -10.98103149639127
C          23.94746080007469    9.76241971959400   -9.34450803261320
C          24.36925873647827   10.05272879322129   -8.00969400604009
N          25.53367505243147   10.65616288295947   -8.02425393341304
O          25.91719284469066   10.78473614780113   -9.29486127900268
C          24.98945928715898   10.26335762800779  -10.10722633462984
C          25.16488552151717   10.27546537484758  -11.50570303238006
N          25.30301069796370   10.28262169613522  -12.64090492024502
C          23.66197497039162    9.77001035023762   -6.81956412493472
N          23.06125790452018    9.54066181742358   -5.87453258953622
H          11.72358327221016   -4.40240444294194   -3.55429852207403
H          10.46833237616001   -2.37286677506441   -4.72423523396878
H           5.89052135143595   -3.32208216863918   -3.35330443278698
H           4.55754240473587   -1.45155068355899   -4.68830254810101
H           8.99206465473062    0.66682698839202   -5.50283812077509
H           9.94952888422891   -0.63618474640118   -2.88856032826135
H          11.22063275254621    0.39847319096143   -1.26611083859837
H          12.90972367684589    0.94069905708563   -1.14887735948974
H          12.04503766693807   -1.75137412499916   -2.33759149179227
H          12.72328904046968   -1.50805968108665   -0.72564524943291
H          13.70347270210005   -1.16938039689657   -2.15283683394517
H          11.48253194481772    2.43708362882473   -8.85863900019808
H          13.17858613368270    2.95389922351056   -8.82245061946761
H          10.71410893924770    4.56602519619881   -7.95018462256130
H          11.71277951982015    4.88238264670269   -9.36967133104561
H          12.36576628155334    5.15363541438636   -7.74883330293741
H          14.97465779429291    3.40626705307342   -5.11387190636673
H          14.50289894498425    4.30298177054501   -8.01872855477430
H          16.43261483293667    5.70973350083763   -8.97856012422275
H          16.96474561113084    4.43380045057681   -4.87210555343029
H          20.66213629410505    7.25448735744903   -6.84964326741235
H          20.18942319930661    8.33163748910905  -11.01673211537076
