116
 SCF done       -215.083374015259          0.000788630103
C          -3.29869932161683    2.25734524742512    1.30922600326157
S          -2.35299691418942    3.61925260559230    1.71989692648955
C          -1.20381601349432    3.24733489533838    0.44957427998927
C          -1.57801774768016    2.11372914388537   -0.23749535029165
C          -2.76869481879463    1.54375307804214    0.27602076695401
C          -3.27421333970962    0.23033570780934   -0.22594254676293
C          -2.04738624880420   -0.61088605877670   -0.61600242455523
C          -1.17284942083829   -0.71791896693209    0.52980290589616
N          -0.47790574165005   -0.74173242361712    1.43673860645624
C          -1.28545992710775    0.10120889164297   -1.75766291639370
C          -2.16846741397950    0.20931174663133   -2.89976676921292
N          -2.88058899926992    0.27439876097247   -3.79028528366725
C          -0.77235581103628    1.49034078876433   -1.32984084768783
C          -0.04829280987504    4.08586411464800    0.34035782711621
C           0.46775991609098    4.79199194475726   -0.72887028856960
N          -0.01447419829812    4.85902324997781   -2.04362762829435
O           0.55747780712516    5.60684322362948   -2.81689805293415
O          -0.99040822918688    4.18277397349482   -2.33967113290887
C           1.56023645034793    5.62333595281917   -0.27043825811084
C           1.68637666811206    5.47849409961101    1.06786687931024
C           0.73254068700683    4.49376155982840    1.51497206751470
C           0.69828846331313    3.87578186500221    2.74819877875483
C           0.35367347142812    2.51126877201314    3.01158942243125
C           0.74477762425559    2.19635526558903    4.27873207909607
C           1.27417455551326    3.36826179756987    4.90640779417600
N           1.65715924808485    3.41068350179960    6.26191663273029
O           1.86178641041554    4.49823158605040    6.77313893002842
O           1.75536855004584    2.34581698835355    6.84437161119226
C           1.24671472998072    4.42909720378872    4.00381071795212
C           1.54426542530522    5.77940332939492    4.25951395344865
C           0.95150959345960    6.82523407747592    3.60219556320615
C           1.31046033814693    8.16637696130051    3.81697732831505
N           0.61375605550136    9.24239675266221    3.32587112012994
C          -0.63193211145764    9.19612927250314    2.59776997500980
C          -1.81413451211225    8.87787790687313    3.50874982039521
C           1.22168599517978   10.46973219060784    3.66150411859776
O           0.79317109070481   11.54983217875213    3.32896405310303
C           2.39859337329026   10.07838981566419    4.41747119674106
C           2.43253636178190    8.67775439936572    4.49183121792195
C           3.65878306239355    8.30088364024071    5.16893721670964
O           4.12922588278948    7.22313757095602    5.45194919378497
N           4.30241161063410    9.53137217690850    5.44377181607467
C           5.45229138037514    9.55821338348970    6.32171204753577
C           5.11842903841176   10.20008497349633    7.66453074752022
C           3.56370000921416   10.59565364467240    5.00156387925068
C           3.88123767268848   11.97525097356994    5.04988501790124
C           5.11947016131224   12.52973940911051    5.01994427987749
C           5.36766802172194   13.93125949154467    5.05319144258510
C           4.78828193612255   14.90446366145315    5.85849628483798
N           3.89238745500085   14.72786339297893    6.93028887341335
O           3.49899247109064   15.73105812129870    7.49717104448736
O           3.59372626358006   13.59184291987079    7.26501296868063
C           5.40078029566791   16.17656341920028    5.58246352712519
C           6.37712585255436   15.99805970974657    4.65770696343776
C           6.40973135868365   14.60908827090924    4.27700659478134
C           7.14443950722614   14.03632968888233    3.25694289911385
C           6.73936285617869   12.91940489975007    2.46682152225007
C           7.55023635084169   12.83392764326334    1.37345903256045
C           8.56306683976704   13.84100101285033    1.46299045393087
N           9.59031081078110   13.96258202584892    0.51334541104749
O           9.58416664166015   13.17543450802339   -0.41727007285168
O          10.42515878017677   14.84318612835736    0.65722048182005
C           8.37569665247790   14.57744853662945    2.63218494171880
C           9.26231846422798   15.52630370631507    3.17190173532377
C           9.32987612988902   15.89115119342650    4.48650635762122
C          10.19604381871347   16.88548834883521    4.98389977826553
S          11.32660465788375   17.73172027842508    3.95378168561404
C          11.87865998951934   18.65957539670170    5.27120867913814
C          11.23870348500832   18.36453794609631    6.44850615185202
C          10.27477312163927   17.35327359901719    6.29274371551539
C           9.43771172464070   16.84855220357408    7.42501908557718
C           9.46616085932399   17.83354666820472    8.60491588772868
C           8.68576786644239   19.00577704967396    8.27434360390397
N           8.08155851665346   19.93207415551475    7.98938807970877
C          10.91917880305397   18.25698220480545    8.92242187058668
C          11.71718973486369   17.07586977371726    9.16607759077813
N          12.34319012425913   16.13591662537498    9.33725747588463
C          11.50799045436789   19.05520553847701    7.74899421395346
H          -4.19639874692841    2.04881699477402    1.85681374563008
H          -3.90959823452248    0.36675928973533   -1.10578759881488
H          -3.86065645677720   -0.27108662424805    0.54627233401871
H          -2.35068061268874   -1.61377941242068   -0.93605236397772
H          -0.43187518924298   -0.51439392562899   -2.06769926593554
H          -0.79733811339149    2.16376150489606   -2.19487064601950
H           0.26945565614032    1.41411520707413   -1.00436777444895
H           2.14211222497963    6.23976828145469   -0.92841708533525
H           2.43786009802354    5.92058370750040    1.69138110640381
H          -0.02295220250560    1.81607049722015    2.28644612692834
H           0.67594734131158    1.23940924290010    4.76041380518385
H           2.22510144110890    5.98300916284563    5.07869666557192
H           0.14400121396723    6.62491965153431    2.91144174649062
H          -0.55430623960923    8.46286106776827    1.78938546460214
H          -0.76038948758640   10.18975626134421    2.15974185398891
H          -1.68960076762072    7.91000711519777    3.98934468321117
H          -2.73067420580122    8.86328454527266    2.92604293980405
H          -1.90528328385189    9.63863474990570    4.27986921978412
H           6.28829241856722   10.06931447234075    5.83921972444096
H           5.73159578443941    8.51021658947705    6.46640127103934
H           4.76529936132702   11.22126938804527    7.54044772268728
H           6.00388989778142   10.20750204127788    8.29370771450610
H           4.34293201753100    9.62778753826760    8.16739084381036
H           3.01374297154457   12.61952646054186    4.99561168231715
H           5.99006766790391   11.90366219248654    4.88029764876193
H           5.10425935415737   17.09188239619475    6.05844279527242
H           6.96573147227552   16.76769294924127    4.19825455631150
H           5.84851516796554   12.34532820785600    2.63143989867415
H           7.47153403992195   12.14360196365107    0.55469467408228
H           9.99115982603853   15.93658622935938    2.48277300817190
H           8.70977765761595   15.38750532709962    5.21525300153062
H          12.65218368381516   19.38749459127911    5.12258586234381
H           9.82774600268442   15.88146496210356    7.76103665783024
H           8.40475753374979   16.69879071656798    7.09974704172602
H           9.01496555267672   17.36158044475073    9.48586542200616
H          10.93715651018949   18.87190409040467    9.83017544561627
H          12.58347587476733   19.19051607334966    7.88694337357132
H          11.04772487187696   20.04843675691840    7.73024514266014
