110
 SCF done       -197.111607976166          0.000650375313
C           0.97943980175438   -0.00831567371994    6.40218450231951
S           1.31841267637857    1.63250091013163    6.06119493105058
C          -0.31320679987124    2.09334386147907    6.49443925154784
C          -1.04993052649997    0.99783892597044    6.88469344824958
C          -0.30597093709157   -0.20465693755386    6.80981198031611
C          -0.95587644214587   -1.52861255138647    7.05104914007817
C          -2.41107507108649   -1.41805356569067    6.56683663965232
C          -2.41589643572149   -1.01628951793185    5.17865587120480
N          -2.39948970226030   -0.65578877447415    4.09433969796997
C          -3.14537483730552   -0.34183591814136    7.39980102204105
C          -3.15035260746811   -0.76266752982789    8.78447280276840
N          -3.15884690054686   -1.12428520725825    9.86793817393065
C          -2.49774683316825    1.04929356008521    7.25078079310418
C          -0.68549893763288    3.46816909709513    6.33378676292568
C          -1.19755982179362    4.37315925901845    7.24175298942808
N          -1.51457537827264    4.16811408077505    8.59047379343400
O          -1.87500064733425    5.13462018527216    9.24063319335447
O          -1.40815442659191    3.03857634296160    9.05081447823606
C          -1.24589386961510    5.68536912180821    6.63244819969246
C          -0.73110153545276    5.60471180259959    5.38512573306209
C          -0.39107709864583    4.23233695853671    5.11329908706793
C          -0.04891039858456    3.68478580478410    3.89492779686788
C          -0.33345632139702    2.35870874349456    3.43902469674403
C          -0.05973916349262    2.29121132774837    2.11010641647905
C           0.46050740001826    3.55313041363584    1.66148100519269
N           0.90485477861420    3.69475829443356    0.33881327605545
O           1.14463797766972    4.81007501569306   -0.10530033793392
O           1.02294201174058    2.67488662484335   -0.31991832490323
C           0.50622034473307    4.43713469585460    2.74501090503678
C           1.12989931111403    5.68123346545972    2.95751055185696
C           1.47590443043218    6.62908671736495    2.03105356565554
C           2.11650545837500    7.82358733313676    2.40579198274893
N           2.44574648608219    8.82251537837810    1.51629348083028
C           2.27187344226585    8.76991097028020    0.08212040837751
C           3.27311978491682    7.83615522218669   -0.58938923311709
C           3.04237825260776    9.91457219733419    2.14758110136219
O           3.39046043876090   10.93161021956857    1.56827957968964
C           3.08934885615730    9.54621970445521    3.54706649926685
C           2.51449070410133    8.26439766127816    3.67656787437843
C           2.55630160277747    7.89740201411388    5.07841970219796
O           2.16746889008181    6.91224520329709    5.67361488440853
N           3.17681374798530    8.99088783530483    5.70556572753473
C           3.37300816708593    9.02579627696750    7.13703622892135
C           4.77498490341691    8.56410711857415    7.52622874344145
C           3.50709659655468    9.97451601918080    4.81436393052022
C           4.15562678092537   11.17432506947763    5.20289595023102
C           4.28916517328733   12.23396658261592    4.37364184974988
C           4.89481014785706   13.48856794870824    4.73810190186772
C           4.89067007581730   13.98923018969343    6.05429429648344
C           4.16632830392211   13.56338918449881    7.28105160572076
O           3.41472553059202   12.64362499257839    7.46449532759147
O           4.46113609818205   14.43289639826337    8.27179352269180
C           5.33190209554453   15.45562318090066    7.83005724605320
C           5.56177947872104   15.16185049028311    6.38500315689335
C           6.26603029581923   15.88664312558791    5.44136851629319
C           6.23869866728552   15.43649164341347    4.13796473312809
C           5.55983857414326   14.27081582780892    3.75606757524819
C           5.53572430793708   13.91299893159798    2.34994685349728
C           6.54577654541901   14.18964032276416    1.50356086770812
C           6.59394583848762   14.01878905897377    0.08582839130733
S           8.10219629451659   14.44403391951746   -0.68736404026249
C           7.43902564088354   14.17148213356093   -2.23661227841737
C           6.13775018656634   13.76799730396259   -2.18077399142892
C           5.64813092293400   13.65949317525677   -0.85585708011010
C           4.24038718842764   13.25553493353477   -0.55181264322617
C           3.47081411068862   12.80780448842532   -1.80660997099180
C           3.78907772506961   11.43654755672721   -2.13126709481473
N           4.04275025405428   10.35843535765217   -2.41292292085815
C           3.81002979736556   13.69173456032350   -3.02748862475680
C           3.54754819432265   15.07627208145817   -2.70850283862342
N           3.35142689240926   16.17043247515769   -2.44440392160548
C           5.29105795084811   13.50776278093959   -3.38758030560117
H           1.74650876968950   -0.74709699549806    6.27963889810156
H          -0.95180182851074   -1.77776401219527    8.11618578570814
H          -0.42566890619722   -2.31620373008887    6.51214825032573
H          -2.92571613837378   -2.38070649489062    6.66430061433096
H          -4.19299503577690   -0.28406345486681    7.07829026444539
H          -2.58635665615032    1.59005364713730    8.20025640218145
H          -3.03589734192155    1.62622522864905    6.49281059050009
H          -1.63153487246997    6.55076326122592    7.13616724905141
H          -0.68332792150025    6.39947194141775    4.66793453301904
H          -0.80260935233478    1.58687538300878    4.01708653257406
H          -0.20653912187288    1.44991859502245    1.45944600617164
H           1.35047193602015    5.89677732739796    3.99507869826033
H           1.23723213188272    6.48235298303680    0.99046993562142
H           2.42912939064797    9.79031196280563   -0.27577197920884
H           1.24770194297969    8.46692764004313   -0.15054671102434
H           4.28339339533227    8.08302695984679   -0.27245879713894
H           3.21417610633964    7.96666118798328   -1.66514159858811
H           3.06714493279445    6.79646583291143   -0.35154955942518
H           2.63510305793242    8.34101841511074    7.56377026078481
H           3.17550872692871   10.03661826077208    7.50140522001389
H           4.93995580887447    7.54364068307654    7.18838539186266
H           4.88010071026854    8.59354232529824    8.60681233047740
H           5.53568552867716    9.20358993893753    7.08377900140808
H           4.52894637255411   11.22061568899156    6.21115254866469
H           3.95096832232425   12.12325592038527    3.35318833009283
H           6.25354396949711   15.42037901236624    8.42245453361259
H           4.85019319838421   16.42578947598460    7.99431296048559
H           6.78998870740911   16.79037388114060    5.70993924855764
H           6.72688506005878   16.02158224315847    3.37436958514756
H           4.65343618510080   13.41092640678204    1.99266705139448
H           7.46129873468737   14.60186147493249    1.91103304868285
H           8.03848890160695   14.32854280394773   -3.11129945012659
H           3.71782902224873   14.10748513601649   -0.10370737936486
H           4.22609020860630   12.43515142940427    0.17064819546593
H           2.39494426881219   12.85633252345763   -1.59724273021720
H           3.17970666841059   13.41009014296912   -3.87993742439515
H           5.57499006731563   14.18606236545325   -4.19563092027945
H           5.44412060637789   12.48279820807407   -3.74052395409085
