96
 SCF done       -188.445938798801          0.000798373443
C           3.44673955016900    2.71906652480827    1.68094244188422
C           3.10372559759118    3.80284535568491    2.42839044710524
S           3.40107464328023    3.52332495422032    4.10536332117351
C           4.00043677664212    1.91033037296276    3.79685159101590
Cl          4.53300642659171    0.91068041019358    5.05615953692194
C           3.95903868297876    1.63352419305214    2.46292160878398
C           4.30090081532062    0.50392377340362    1.59217829260489
O           4.76401029013777   -0.56583982411706    1.91397993483975
C           4.00118938772743    0.99146202728443    0.20795532209457
C           3.44218219957149    2.33499552120584    0.28453572684040
C           2.95039649168622    3.10302184650781   -0.73616185308679
C           2.42181718054083    4.38940233271137   -0.49746304267102
N           1.99170801252989    5.43846441558952   -0.32226739080240
C           2.89036899863990    2.72253749109788   -2.09157728714383
N           2.80572428425046    2.46451920393892   -3.20719121763413
C           4.36040147279620    0.33981057156541   -0.92684977950231
C           4.88955093266807   -0.99324648901065   -0.98691227748842
C           4.35482517685451   -2.08754166674241   -0.28649801245702
N           4.89946088070127   -3.27720070828975   -0.31742638414597
C           5.99112179884980   -3.45537465737570   -1.06669965583034
N           6.50944691476213   -2.50878318567727   -1.85443993338130
C           5.98264681892900   -1.31529704471966   -1.81437075134736
C           6.67907632327281   -4.71987428622791   -1.06867063960665
N           6.27257462736906   -5.85954417529028   -0.42135346425910
C           5.04484273935552   -6.06897026958268    0.30875234470093
C           3.86466920467516   -6.28902509517240   -0.63245127982701
C           7.19122861332175   -6.90699894894609   -0.59406898541863
O           7.04395999825302   -8.01786783616600   -0.11744009824782
C           8.24348384246049   -6.33488005339009   -1.39962519294323
C           7.89380197471141   -4.98622431894233   -1.68230434960498
C           8.96631802785255   -4.40322290006972   -2.46995503434331
O           9.15066119146682   -3.31041861935254   -2.94583449341342
N           9.89315295135175   -5.46949654249072   -2.61779120132798
C          11.15308942728671   -5.26802999482996   -3.29164979796453
C          12.29960813295609   -5.06440348297532   -2.30381167171353
C           9.47888944719364   -6.60368673210349   -1.97756344801930
C          10.24374802285800   -7.81220821469009   -1.93578579407748
C           9.86470115404692   -8.87672525018432   -1.21468658710512
C          10.68267153689503  -10.12444267395654   -1.12948193530983
C          12.16030404174724   -9.79547243456351   -0.91308189265397
O          12.61793811474403   -9.09010768728791   -0.06524011699171
O          12.91561784453092  -10.41889577472796   -1.82211557051413
C          12.16548668244525  -11.21240103887497   -2.73346235681029
C          10.67035057081114  -10.96935693125767   -2.41728359115801
C           9.85477389789298  -12.24988726409313   -2.27364696431607
C          10.58501374799026  -13.26750205131108   -1.41229863764402
C          11.83222592700779  -13.79092632736068   -2.11665366350202
C          12.72771767053800  -12.65532438883131   -2.67251040735626
O          13.11154144270924  -13.03641244122777   -3.98918536575989
C          12.47425704385558  -14.11094125424877   -4.43613059730953
O          12.64053940109172  -14.57130828921525   -5.52969033751683
C          11.59226762295675  -14.70412269116156   -3.34287831308896
C          10.18552109372056  -15.05110661600877   -3.70285810359818
C           9.54286577892285  -15.18705625414468   -4.87228276931581
C           8.33387629881279  -16.10119668436830   -4.85584863155579
O           7.67534850030704  -16.38642194663444   -3.88883936304681
C           8.23950190943082  -16.58609008426630   -6.23133328678830
C           7.51482498178893  -17.51801950177262   -6.91736027918163
S           7.99529016824915  -17.54947902861351   -8.59534193242844
C           9.15471608158288  -16.29300320966079   -8.35827284698526
C           9.17654298773392  -15.88547172691499   -7.06221152928100
C           9.83983773460502  -14.86936384295179   -6.26853241009353
C          10.37054811974857  -13.72408336660321   -6.78301247096285
C          10.52603780389149  -13.54199937172074   -8.17460894798853
N          10.65242744148007  -13.38937176078741   -9.30341983427292
C          10.68192667380177  -12.59629850831217   -6.00352509466887
N          10.85179108382173  -11.64396146172026   -5.38681009957389
Cl          6.30755751042747  -18.54489651435856   -6.32262582055325
H           2.70242207908713    4.74626850183586    2.11554632270555
H           4.29791529341046    0.86061553724370   -1.87488367021705
H           3.43372828028849   -2.00057213029449    0.27307690882575
H           6.45533466719191   -0.56578044852731   -2.43555511870328
H           4.85930625683917   -5.20834045654181    0.95220974546407
H           5.20735271068543   -6.96386952602495    0.91601469181943
H           3.69338395329696   -5.40180501091195   -1.23643251830646
H           2.96880374456235   -6.49525097224078   -0.05410756380785
H           4.05926686403959   -7.13366703710546   -1.28933702170427
H          11.02755212874525   -4.36718061189796   -3.89904086715066
H          11.35439835225837   -6.11389772735842   -3.95490787375049
H          12.10380838688609   -4.19209826784284   -1.68529690395853
H          13.22706160869393   -4.90395668494967   -2.84650342816447
H          12.41914410622857   -5.92847076010134   -1.65370698508072
H          11.17045547034472   -7.83287066546518   -2.49275508908091
H           8.94005510627352   -8.84892656115840   -0.65576647508548
H          10.34453270584712  -10.70630571580130   -0.26787981343267
H          12.40308766092131  -10.85540253965527   -3.74226565987096
H          10.24240698005989  -10.37874655105787   -3.23013471841500
H           9.67075654792534  -12.67135996062727   -3.26328065493015
H           8.88754568962798  -12.00235730512738   -1.83520965168279
H           9.92753956125944  -14.09910842536808   -1.15995106625508
H          10.89535242087919  -12.80713810482227   -0.47186998891764
H          12.41812637506803  -14.35181802149089   -1.38280283093439
H          13.65654312604477  -12.57822048170924   -2.09382314142554
H          12.03975322300054  -15.68859518393245   -3.13222729048640
H           9.62817888287218  -15.45350724399695   -2.86010793900902
H           9.74720909912717  -15.95591520883660   -9.18541917808450
