67
 SCF done       -132.477129328641          0.000959652239
C           3.65692672806642    0.83359007212212   11.22917124539410
C           2.64086619030166    0.85470912165320   10.37007697357068
C           2.72957010253220    0.37701290280914    9.01261631714293
C           1.71683927537096    0.37577173909908    8.09846399580658
C           0.34331005623265    0.87991365299992    8.31194896113483
C          -0.53641919537273    0.83782093973682    7.09480071068304
O          -0.03929503406317    1.29363190609834    9.38281828809796
S           2.09070139500772   -0.25015116416439    6.50566876582484
C           3.75904179320949   -0.61232600174963    6.82004903554938
C           4.64602089687335   -1.24116639061687    5.97239667062707
S           6.11447701810981   -1.88812285003587    6.70607413387818
C           6.58608846314985   -2.69420746409844    5.24311857632838
C           7.84044454559010   -3.40481231253374    5.21247152792748
C           8.24142090855966   -4.19630512204034    6.29779858674852
N           9.38595626983784   -4.84010167763579    6.34049132553171
C          10.20348697424434   -4.75957477766585    5.30891354188420
C           9.91842610159893   -4.01139371465288    4.16310156258282
C          10.87252601192974   -3.93817904797014    3.05550705982112
C          11.11763197485107   -2.73584285997734    2.38841045524593
N          11.95259502500524   -2.62808361868117    1.37407411733806
C          12.64404427946397   -3.68131243078147    1.00360926205996
C          12.54382129191796   -4.92810935296081    1.63700952162389
C          13.35892812451153   -6.04265308117190    1.20764522439556
C          14.67169881559782   -6.00499940231804    0.89758742431724
C          15.29151172693091   -7.13678997173725    0.13268398200045
O          14.80477055617681   -8.22372601697718   -0.05765580219345
C          16.56441925537736   -6.59112937210284   -0.35186969833835
C          16.76402393978545   -5.27394725856405    0.18090875498736
C          17.92743468007782   -4.70052966183715   -0.22842231797213
S          18.80559514074739   -5.75201985922423   -1.27777098800407
C          17.58555714744606   -6.99810287389671   -1.15779922517093
Cl         17.75028314755243   -8.47409961380311   -1.97200364019959
C          15.66177553989232   -4.94675508727952    1.06373988513888
C          15.68186261611169   -3.94674961418360    1.99656673494793
C          14.74015749246382   -3.78252394656841    3.03194208745712
N          14.04984509647463   -3.64224942441864    3.93809841449862
C          16.74483406669587   -3.02040236454048    2.05240353119887
N          17.59852302707257   -2.25579175748489    2.09535422835166
C          11.59893877201295   -5.05281525469877    2.65293786061133
C           8.72313947143315   -3.30520961443314    4.13577838488721
C           5.65248455368403   -2.49126748619297    4.23040706483083
C           5.63066448613885   -3.10584590419949    2.94546131509624
C           6.49585649105186   -4.16047986457082    2.59967807457071
N           7.14460872594308   -5.05025730386077    2.27180596042027
C           4.68129427883294   -2.71007315317618    2.01250542249049
C           3.77461892774889   -1.70742613113106    2.30933007090974
C           3.71864482585523   -1.14482136791196    3.58840670441622
C           2.84386128249503   -0.05207587063841    3.73681564793660
N           2.16567732476568    0.87450243478849    3.75763008242352
C           4.59210179575823   -1.59490913038781    4.59487211895452
S           4.26698757667489   -0.24285522560506    8.45208933416907
H           3.54371093201921    1.20159091879517   12.23315558869581
H           4.62859502782874    0.44907585621816   10.96036992881912
H           1.67220284801225    1.23957392320935   10.65470340203116
H          -0.08074285824604    1.39385209719011    6.27682743698924
H          -1.50558295593930    1.26658806720604    7.33532288995474
H          -0.66742572003900   -0.19255967776219    6.76731685243842
H           7.59481828287782   -4.31247108054328    7.15813781704075
H          11.14415342702353   -5.28222971250475    5.41156155974946
H          10.63019748511988   -1.81896766325376    2.69026760063661
H          13.29495005259059   -3.54686464060505    0.14889852581643
H          12.85548123259281   -6.99110833500582    1.05166487077111
H          18.32695099651291   -3.73344691667109    0.00418779540633
H          11.45717634313978   -6.00384932119124    3.14408156428350
H           8.48415359501149   -2.67474408104020    3.29173644886672
H           4.67105394565286   -3.17855233686433    1.03994958985210
H           3.09125740809967   -1.35128546805263    1.55398085670674
