86
 SCF done       -169.269460675378          0.000964928385
C           0.71545794109902    0.64551339124828   -2.60943964506510
C          -0.20272159196155    1.64348977112514   -2.72807767651746
S          -0.30175121468897    2.57409866841767   -1.27958459239121
C           0.92370302876353    1.60305137682836   -0.49501146736223
Cl          1.41892007653612    1.92199180064498    1.09218908112441
C           1.35976884388344    0.61979358361593   -1.33095981513731
C           2.34378464269047   -0.47221998101595   -1.27893891851092
O           3.11281412456472   -0.72640671095814   -0.38847561469235
C           2.24343903143989   -1.12414953981861   -2.62903929326008
C           1.23876862967476   -0.43055848404239   -3.42452878318618
C           0.79732413104316   -0.73896482144823   -4.68362841335667
C          -0.20951817387115    0.02304121053270   -5.31446848490385
N          -1.02391766923108    0.63237184021041   -5.84507218406978
C           1.24682401889100   -1.81047282941804   -5.48115576702866
N           1.56313341826750   -2.66325264904185   -6.18187004566970
C           3.05217612888634   -2.11368103860022   -3.08787995749961
C           3.94431489234522   -2.90884168391104   -2.32084976741409
S           5.29105325157300   -3.74702522866907   -3.10493905519683
C           5.62589297572908   -4.41013997350610   -1.51844783204905
N           4.76320756719112   -4.00543149362701   -0.61509233012462
N           3.86033625839335   -3.19432856238997   -1.05257382399416
C           6.70936668256096   -5.29186562836008   -1.27644010410262
C           6.92898624470469   -5.83395091514827   -0.05141085733092
C           7.99599430255767   -6.72874779444108    0.20865047934981
N           8.23065543476267   -7.30475226188465    1.43596917214272
C           7.50317169569362   -7.05388953325905    2.65697929446646
C           7.89955286001190   -5.72324941707166    3.29135957973692
C           9.33847094292460   -8.16678223052704    1.41129985647965
O           9.72931621908937   -8.78679068422679    2.38150918479875
C           9.80870806536763   -8.10750086724207    0.04472646581017
C           8.96627045701714   -7.21540611252305   -0.66544817192825
C           9.42886064734995   -7.16199998402975   -2.03454881785106
O           9.03474126249823   -6.54824615106168   -3.00638773559584
N          10.52660629414594   -8.03868804172051   -2.06476796750085
C          11.29519910457324   -8.22513005444400   -3.27152013475223
C          12.58797195872287   -7.41280484441232   -3.25345974931187
C          10.76710288450084   -8.60800340174272   -0.83540024111834
C          11.80664106455220   -9.54423927798364   -0.59493741721402
C          12.00889823168509  -10.10817456718316    0.61990237703068
C          13.01508883602693  -11.08346576178723    0.93155115018704
C          12.95857727684093  -11.75122998749947    2.17136038059616
N          13.79749842805576  -12.67894486601740    2.54928995796642
C          14.79235124455456  -13.03120836302906    1.72559503417246
C          14.96669215637475  -12.40676200825044    0.48156009474922
C          14.07372573300516  -11.43873222066176    0.08278310140675
C          15.66158809217904  -14.10310061369285    2.13861866625087
C          15.42078596848193  -14.84457587981806    3.24199265463379
C          16.22546142749105  -15.91180865877572    3.72356673661616
C          17.06634308022739  -16.76351006719442    3.07532135327065
C          18.04532616029613  -17.53679365987495    3.90800832061344
O          18.03831488814684  -17.63515762470562    5.11107888710949
C          19.00417648382621  -18.08264920453500    2.94197896874895
C          20.16823470281151  -18.78996354159042    2.97389259909338
S          20.75714337084159  -19.07239099946266    1.35254376445819
C          19.41591897868922  -18.24060580653878    0.65253203736064
C          18.57379817694605  -17.77061001934024    1.61103062268828
C          17.30785975793682  -17.05972368306973    1.67453684631176
C          16.46777326485503  -16.91394014722511    0.60179023789401
C          16.86138937973552  -17.30233244189571   -0.69599276120513
N          17.16767813275083  -17.58472530952211   -1.76513394963932
C          15.14651612356952  -16.43248331639915    0.64861343175421
N          14.05921301835679  -16.06616268050411    0.61171311740504
Cl         21.00747302118817  -19.36262085135412    4.32920677266827
H          -0.82460476081791    1.90104943772392   -3.56228785519542
H           3.04194095169851   -2.34922045558034   -4.14459707166638
H           7.35650058157483   -5.52367028081900   -2.11076813470235
H           6.25367347313835   -5.57825321333400    0.75180832883486
H           7.75901841241865   -7.87434435124929    3.33339980589727
H           6.42911515180690   -7.08330138451967    2.45524202096333
H           8.96367636092954   -5.72062550545450    3.51524766939644
H           7.34945097646149   -5.58056491077772    4.21716724102479
H           7.68215609705814   -4.89222432480097    2.62430537846545
H          10.65842986802469   -7.87972998135723   -4.09084609385591
H          11.50277911992807   -9.28940571709050   -3.41402779436190
H          12.35855326397134   -6.35391806498127   -3.16325165016399
H          13.13537908919317   -7.57159432957228   -4.17849608934695
H          13.22044847659227   -7.70076652044582   -2.41631229161832
H          12.42926583382128   -9.81448979761561   -1.43522767594101
H          11.35092399711076   -9.83654306560631    1.43524442311507
H          12.17438257104665  -11.50718880684012    2.87688677740832
H          15.78540265881518  -12.69989443146010   -0.15833019333718
H          14.20082631726341  -10.95186357113567   -0.87271124402365
H          16.53304955274880  -14.28303728689815    1.52285049065361
H          14.57860563690322  -14.54950865192336    3.85406600700267
H          16.21334097862406  -16.05350025276144    4.80157594581245
H          19.35240302448663  -18.15320369971241   -0.41378684551159
