85
 SCF done       -175.420870487594          0.000844983839
C           9.04442690526071   -1.20877225655816    4.78508287929679
C           9.42313799720909   -0.75867658126692    6.01146256980423
S           8.71197443437358   -1.70204028627743    7.27035490706648
C           7.88443283763505   -2.72864062972582    6.12334967572603
Cl          6.89539481474064   -4.00557771855205    6.63128667327018
C           8.16381541780351   -2.33683163200203    4.84786546000577
C           7.80733653627051   -2.75817912902813    3.49288882894438
O           7.08237811495542   -3.67875789600585    3.17199047388685
C           8.52012021123899   -1.82300657900772    2.59214736000568
C           9.27747079879438   -0.87055042175430    3.39347226625067
C          10.07039500912498    0.16342974205555    2.97402797647126
C          10.73779880924516    0.99185581331460    3.90228303651842
N          11.28731045566783    1.67494790809724    4.64197375584008
C          10.32829441129703    0.54000980414891    1.64002235465440
N          10.59116196305167    0.91392453916246    0.58717388651115
C           8.48200490557610   -1.84494494348436    1.22677258954155
C           7.79972803857879   -2.70614912787902    0.34551159434109
N           7.93342800226598   -2.51289291641152   -0.94939229153205
C           7.24185003112368   -3.39145467339703   -1.64758675721475
C           6.51124318226214   -4.34549898788702   -0.88760242233721
S           6.74244950021729   -4.07465485453139    0.78735383571646
N           5.81828930991988   -5.23259551985072   -1.58978868472928
C           5.95974180335033   -5.02884262352413   -2.87432258749237
S           7.01377664020453   -3.66208745573020   -3.32831378099242
C           5.35401636328853   -5.79156838446669   -3.89933243922616
N           4.50949703201009   -6.85823187575470   -3.72427795187940
C           4.11302106724764   -7.45582297391932   -2.47130311658048
C           5.19266354387634   -8.38554617984200   -1.92717736115990
C           4.08163156516505   -7.38626835626737   -4.95592916055894
O           3.33114848838924   -8.33673677344157   -5.05520380299857
C           4.72015916462794   -6.55148757956832   -5.95211507985591
C           5.49237213553389   -5.58574979927804   -5.26807791084036
C           6.13303051895142   -4.73598157693985   -6.24438734646283
O           6.87343935433480   -3.78284745263522   -6.12322677281061
N           5.69818508410300   -5.24816388384383   -7.48006651616135
C           6.16153696305306   -4.68172350799320   -8.72426560080166
C           7.29839472152530   -5.49914105091061   -9.33245801309844
C           4.86231053441902   -6.33036398239810   -7.32488402661123
C           4.28198398341855   -7.03880743039078   -8.40383658974973
C           3.44203725802486   -8.09080823368121   -8.21040113422997
C           2.84372378842716   -8.84134340801216   -9.25310474420404
S           1.73460130713752  -10.12313738221213   -8.85408575726347
C           1.49057530755269  -10.52154083190931  -10.52517122595667
C           2.25058470051696   -9.67565608165459  -11.34915910349928
C           2.99896563033399   -8.74166104530137  -10.62244818786411
C           2.29419098962761   -9.71838413274779  -12.80817301601025
O           2.97586171969018   -8.99050082901778  -13.48514651471884
C           0.62387225253219  -11.56552905515036  -10.91563644263186
C          -0.12300950928448  -12.30238714043100  -10.04905806801023
C          -0.98674373121652  -13.33467466663474  -10.47293193238553
C          -1.90898291398460  -14.00324102019256   -9.72317251185091
C          -2.44312700519846  -15.30982370376773  -10.21849303787211
O          -2.31744414396021  -15.75969347030750  -11.33206463952175
C          -3.08540703397235  -15.90951897637712   -9.04284881026030
C          -3.69379951692774  -17.08630397447637   -8.72397958242263
S          -4.22050718927759  -17.07152978726503   -7.05681024368336
C          -3.62141430405191  -15.47037983114565   -6.81508778222413
C          -3.04614751823253  -14.98496076827252   -7.94685822831589
C          -2.42737909274463  -13.74926200838443   -8.39375792699508
C          -2.52633077833279  -12.55220872982520   -7.73291271312939
C          -3.10561516210962  -12.47474290194487   -6.44864055324311
N          -3.56027790336419  -12.40085642263376   -5.39797012860135
C          -2.18874133575574  -11.29330649217744   -8.26864116716922
N          -1.97955354889125  -10.23854250213543   -8.67098551992441
Cl         -3.95595864546766  -18.43177327899321   -9.71887477578130
H          10.06786655037836    0.05786856615028    6.26919281806111
H           9.05490701577392   -1.09870458872065    0.68860532560541
H           3.20178928066104   -8.02263604181144   -2.67994196523596
H           3.90439435661359   -6.66266904834560   -1.75182168266461
H           5.42300270655283   -9.16159921761478   -2.65333461126815
H           4.84172042722945   -8.85469906113518   -1.01296312228401
H           6.09586567049064   -7.82378105853560   -1.70492110333198
H           6.52233211312742   -3.67807531276205   -8.48261217866999
H           5.32385695872782   -4.59597571760593   -9.42160619269465
H           8.13943099514113   -5.53257491807367   -8.64444452440704
H           7.62697288404418   -5.03784291817513  -10.25945100816800
H           6.98104097617653   -6.51857175740627   -9.54091922641901
H           4.52183177415745   -6.71592527225113   -9.40573019842856
H           3.19959640410071   -8.39283592560540   -7.19953081477767
H           3.63287395424504   -8.02473930870129  -11.11195767964910
H           1.64620379403287  -10.48324754270583  -13.27316163995175
H           0.53040994203220  -11.75742668990195  -11.97612904947618
H          -0.03792932969467  -12.10087366351176   -8.99028092924343
H          -0.87174656390174  -13.69509760110523  -11.49016651255384
H          -3.72942418132482  -15.00803901378352   -5.85406386838861
