96
 SCF done       -195.806594531847          0.000520206080
C           1.65468779977234    2.29917441688962   -4.46229018978794
C           0.58758485118098    3.10807867142281   -4.70343145731098
S          -0.83633877542746    2.18458791181367   -5.01619532441147
C           0.02198266641542    0.67349615910353   -4.81987472816181
Cl         -0.76374646187654   -0.81700955423075   -4.98404899935503
C           1.33230033828299    0.90604856067526   -4.52732600030062
C           2.52726729982930    0.09778740653061   -4.25759103850586
O           2.61691798114288   -1.10665130374130   -4.28141122360672
C           3.61718342218575    1.09954840740387   -4.03141482854522
C           3.06097860514201    2.44019700999774   -4.14458807077592
C           3.69239722975139    3.64001618172021   -3.94286622092948
C           3.00009524535314    4.86240463979598   -4.07603261825284
N           2.45618202274009    5.86660147996236   -4.18548733734620
C           5.04173681639201    3.82101545315826   -3.58014781574539
N           6.12682514563690    4.04484349260915   -3.27781328733151
C           4.94822682426231    0.82819164867595   -3.90010128701654
C           5.59503235278777   -0.41233071050902   -3.67099837505475
C           5.12498101784985   -1.58371747891523   -3.11628015096854
C           6.18785315473741   -2.53446275209828   -3.07117600122420
C           7.37666490642620   -1.85924299658925   -3.61745919362111
C           7.01906048485724   -0.59097263312396   -3.94370990290675
C           8.67685372263425   -2.37656644619129   -3.69364705891463
N           9.76261785186688   -2.74744811462112   -3.73531760544587
C           6.12241905799070   -3.83230896655893   -2.61731604569378
C           7.11897799968746   -4.83579125043971   -2.74020839307850
C           6.68930902069826   -5.98855031622013   -2.10954528693181
C           5.36427051093854   -5.72245299250265   -1.55998295232025
C           5.00570039423485   -4.45236899333838   -1.88026199473173
C           3.80554004099217   -3.84270318913546   -1.49277527290471
N           2.81860836833675   -3.38097428268254   -1.13061649757065
C           7.46032095944661   -7.17884855459189   -2.06601893113037
N           7.33613223783606   -8.23690620482440   -1.19983975719419
C           6.45843096137813   -8.36314124874880   -0.05903735054340
C           6.77512114688030   -7.34202717683128    1.02858476396142
C           8.32142621282086   -9.22020891032961   -1.42944466049422
O           8.42202938499645  -10.23137539790635   -0.76812800254376
C           9.07440868891952   -8.72062240097774   -2.55859526649665
C           8.52881527489989   -7.47092625450009   -2.92233316954658
C           9.23092000182615   -7.00323998241372   -4.10226248791872
O           9.09916218398040   -6.02583318074684   -4.80280409529157
N          10.18788080666993   -8.01171399892918   -4.35314632940065
C          11.15156049870067   -7.86328326463258   -5.41716489111967
C          12.49031329534476   -7.34723430573175   -4.89596129199073
C          10.11391812132836   -9.03041146641703   -3.44094510623108
C          10.97069976980169  -10.16109708166309   -3.44881273816844
C          10.91637431271553  -11.13734992429411   -2.51038319550322
C          11.80493710174991  -12.24907421623986   -2.51694353702515
O          12.72982562696031  -12.39368050321026   -3.52560054508692
C          13.40607503387602  -13.51650438664267   -3.21416350979219
C          12.85391057150496  -14.02532057422157   -1.99616061032456
N          11.85061493607242  -13.18387334100288   -1.61703757128951
C          13.33924463241029  -15.17269236655710   -1.39084259674941
C          14.39077598651447  -15.77634471282560   -2.06159411110596
C          14.91635252889968  -15.25567755249641   -3.28359849575959
C          14.44624527907541  -14.11128929678740   -3.89887428308672
O          15.91603834078308  -16.06991455675733   -3.67224848512405
C          15.99277581909089  -17.02204579126407   -2.69684793065377
N          15.11563407668847  -16.88749735589017   -1.74648747284775
C          16.93865699596588  -18.07840304469197   -2.84880715394677
C          17.29460241962551  -18.99349886477556   -1.92065982445885
C          17.97757538615782  -20.25871547230024   -2.36460079779198
O          18.50077534990136  -20.45086385359080   -3.43307543085457
C          17.79451082119567  -21.17561586987362   -1.23686508888207
C          18.05374055155831  -22.48688136961424   -0.96249398398793
S          17.52476705098401  -22.88919353859897    0.65253865045188
C          16.97020242835566  -21.28071060833536    0.94383870970739
C          17.17413061785088  -20.48694948829040   -0.14080579969386
C          16.98862207806314  -19.09354576230621   -0.50007051246932
C          16.78542379207473  -18.07726457459897    0.38782881927352
C          16.54700581416938  -18.33737315821844    1.75468254567569
N          16.34076129646204  -18.54218754847135    2.86402080635523
C          16.90858592085655  -16.70466821475222    0.08604832051583
N          17.09786349376414  -15.58281722846943   -0.06211321156112
Cl         18.77829913023400  -23.63960414946342   -1.96836856820075
H           0.53446066435113    4.17842838943171   -4.72425297555116
H           5.63152506421090    1.66504831636722   -3.99611311879559
H           4.12646405681984   -1.77699357526263   -2.78109707437927
H           7.65962872178695    0.17169873849223   -4.34736443503506
H           8.04800526305243   -4.71239298696153   -3.25965000353474
H           4.74786102699114   -6.41899361833658   -1.02551995267075
H           6.62846658551325   -9.37376459590948    0.32475795216663
H           5.41625565260692   -8.29217159037712   -0.37994188377719
H           7.80373656522129   -7.45939999764726    1.36100142349244
H           6.11643638638524   -7.49808215006124    1.87828432645084
H           6.64169310218800   -6.32433093858528    0.66790409335689
H          10.72442306974508   -7.13363858429980   -6.11076595219866
H          11.27285787111914   -8.81714139921631   -5.93720557714772
H          12.35394604003192   -6.37735104266589   -4.42426321657147
H          13.18697649318423   -7.23548343600222   -5.72189600622168
H          12.91683560379249   -8.03262953609588   -4.16666052317240
H          11.70673771834778  -10.23157905810430   -4.23747670797997
H          10.20352985986347  -11.11516320637347   -1.69816064290710
H          12.93943866191761  -15.55549881515136   -0.46927069706066
H          14.85567455241479  -13.72193726836351   -4.81465040837786
H          17.35015650369954  -18.19607961042823   -3.84444855792989
H          16.52632370357746  -21.03825673934396    1.88892927503030
