90
 SCF done       -218.537187877844          0.000906810796
C          12.56004499366269   -0.09572223615079    0.78284212510804
C          13.67108662373913    0.08318360378991    0.01691861754001
S          13.42086255162218    1.30944610953122   -1.16944547796648
C          11.78684351567479    1.59699494610656   -0.62897661182798
Cl         10.79829999882186    2.75363766645655   -1.36671328027512
C          11.47793407352040    0.77185225943419    0.41495272222086
C          10.32444117862573    0.52505585065207    1.27036516876353
O           9.25505904991545    1.09166883393141    1.29218518354240
C          10.75893934230420   -0.58926035291631    2.18239894513851
C          12.14408637849446   -0.94553160973413    1.87771256088526
C          12.90663476828013   -1.90990541632683    2.46905166195982
C          14.23882798548292   -2.14621284246842    2.06092770676809
N          15.32094528571904   -2.34592679928700    1.73990092375510
C          12.47779201583638   -2.76498801694511    3.50664309344863
N          12.17550472115717   -3.49800740666779    4.33529196112677
C           9.96124521940080   -1.11159967970956    3.12868971978467
C           8.56540650576808   -0.72886994752290    3.28162362745021
C           8.05398672641124   -0.20473142194035    4.47188252121824
C           8.92508205850206    0.03281365436625    5.63885439632999
O          10.10990722919058   -0.11627246912713    5.68960836999870
S           7.92138615216360    0.60853276627605    6.99838711814813
C           6.40632723898002    0.61092831673738    6.01957136208870
O           5.35444699108709    0.92433904706217    6.48579832754306
C           6.71591171129860    0.16156568324574    4.64329996546597
C           5.77580439451458    0.03116670892092    3.60637112701629
C           6.29481792308706   -0.51617200564107    2.42284039336077
C           7.62233480944480   -0.87961603405677    2.26332246609068
C           7.78064398978242   -1.38735115927258    0.87330003295835
O           8.74468180593482   -1.82153854283638    0.32538007734959
O           6.55951558912754   -1.27715121852511    0.26783676095366
C           5.61731200150707   -0.74510122574514    1.12157249669249
O           4.49828224379417   -0.51822275158623    0.79189171466575
C           4.37316276905887    0.37700607755827    3.68128131072110
C           3.89645497376123    1.53697343074360    4.16379642439630
C           2.50748206793922    1.85643300677654    4.22391051921306
S           2.01679052581815    3.46679929853453    4.67456542122647
C           0.31523316561622    3.10778552279294    4.55061167690997
C           0.16260340659003    1.78465774134264    4.18496812724825
C           1.37994227217212    1.09150051512083    3.99999506994933
C           1.04469041533316   -0.29644179949887    3.65292941368082
O           1.74334204157303   -1.23587472828396    3.41944606047219
O          -0.32902234044303   -0.37749818938122    3.64509988518746
C          -0.92609247875793    0.82412956142709    3.95933054360777
O          -2.11065593177785    0.95083670656669    4.02588058793179
C          -0.63499169266929    4.13266827533602    4.83078554311570
C          -1.96283585986506    3.98400451005040    4.67915227007839
C          -2.93775592646935    5.01817856767932    4.94150371799496
C          -2.98274460958601    5.85553766497714    6.07139619375490
C          -2.11341692693639    5.63769464098605    7.25290576921944
O          -1.31660517952267    4.76809476481880    7.43528203170778
S          -2.46357539429409    6.88982137036388    8.47902269986188
C          -3.61418835227237    7.72884213275248    7.40448583130160
O          -3.94711536378303    8.85899271020315    7.61608093239134
C          -3.92845991417203    6.87733544862917    6.23261825433038
C          -5.01818152064883    7.04702038284827    5.34045893660685
C          -4.96991189354712    6.18420171584529    4.22488344539043
C          -3.97028059150383    5.24593169099016    4.02555604826045
C          -4.20948131592840    4.59164038368100    2.71602531845284
O          -3.55982522236286    3.78350645696383    2.13397066572814
O          -5.36956435873535    5.13035513998599    2.21312954148357
C          -5.88517659319772    6.08182099824415    3.05391276844926
O          -6.88783527867851    6.67563071432665    2.80399221788556
C          -6.20281550591334    7.85025315449451    5.49162780387440
C          -6.53287514091369    8.72409070144604    6.46697839121268
C          -7.83889241654729    9.28415462174551    6.57013084474821
C          -8.37334734263449    9.80576949260200    7.70131509591274
C          -9.61161570683209   10.65202715362678    7.62742003873225
O         -10.35698082721861   10.74461926611194    6.68519310017436
C          -9.64582860847416   11.34860333963422    8.91681985058493
C         -10.40164196286217   12.31656896394024    9.50999147240601
S          -9.81058434981734   12.65059898184689   11.12070906699167
C          -8.55739399036849   11.47452284911726   10.97722205884141
C          -8.58954999857818   10.86655583259390    9.76046300404860
C          -7.86813612519670    9.81639725968532    9.06669625550467
C          -7.02282997267123    8.92572327396939    9.67189694596114
C          -6.66896236778861    9.07002240141762   11.03278461185752
N          -6.36544563855903    9.18389467875114   12.13233250496415
C          -6.47905662054830    7.75902037773108    9.09837506661225
N          -6.01795812290002    6.77749623099457    8.71994723508254
Cl        -11.73638548811508   13.13750923649484    8.87049617315273
H          14.61714006053563   -0.41907489095824    0.06452438735260
H          10.33424378603104   -1.84341236439646    3.83362707410567
H           3.69448509812729   -0.34930524648621    3.25138709029404
H           4.56681270703222    2.31148090719651    4.51052128456224
H          -0.21609071506260    5.07359196759389    5.16135438083296
H          -2.35872951499643    3.06555371507337    4.26392860788031
H          -6.96226262619875    7.63364415966552    4.75069519189524
H          -5.81809799652232    9.04113002756829    7.20884438574460
H          -8.45426735064129    9.33223197373377    5.67804927868833
H          -7.88116322516105   11.32297291235050   11.79514579424772
