100
 SCF done       -197.078154694364          0.000657149771
C           2.44509127500572    2.43715201076853   -6.66846322046657
C           2.08417844073988    3.49998683969729   -7.43717755077872
S           2.89327179630309    3.47116650715468   -8.96116239251163
C           3.74031698507213    1.99601528034237   -8.55770004812987
Cl          4.81827487026223    1.27045215694950   -9.64382914971290
C           3.39245563588377    1.57404118302451   -7.30898076551457
C           3.74665129425280    0.46810401344046   -6.41438759040461
O           4.56837290864288   -0.40070902787452   -6.59375806708292
C           2.93281311873503    0.70326005447815   -5.18072067199226
C           2.13819023520227    1.90937854499236   -5.35428133295643
C           1.22162869980992    2.44572928482400   -4.48976350940361
C           0.51331278390994    3.62318521572044   -4.81127614254408
N          -0.06708891834028    4.58112416407407   -5.05884154532979
C           0.86501368414594    1.90916103823302   -3.23622739874104
N           0.52173219517874    1.51421928871009   -2.21456654646677
C           3.05924420687403   -0.02279883416474   -4.03552010182564
C           3.74090615998828   -1.26209336830112   -3.89370281158736
C           4.38019443617219   -1.68207653117638   -2.74783313652247
C           5.00294646579766   -2.94240111706999   -2.99863815988921
C           4.61357282968149   -3.32585749002347   -4.36358971261947
C           3.86394525098109   -2.32206183825364   -4.88993607530345
C           4.84890381094595   -4.55991069800432   -4.98583010820608
N           4.97546825920922   -5.57466616984806   -5.50747553853063
C           5.82915590344766   -3.65032395332320   -2.15328737514483
C           6.57051462769380   -4.81991483465267   -2.46102135844094
C           7.25403641405813   -5.24253638490469   -1.33119651880710
C           6.94903707465862   -4.30445418117713   -0.25874833599197
C           6.12132066718850   -3.34173390142288   -0.74304573511878
C           5.63441099333516   -2.26163934013194    0.00254234443234
N           5.25938332712264   -1.38547116849606    0.64324721453768
C           8.09561590975406   -6.38132907361996   -1.31776494277188
N           8.56758798504831   -7.06918583827744   -0.23065412719532
C           8.32942228519191   -6.81611642001856    1.17156061020329
C           9.39434004957735   -5.89604958529480    1.76398122416793
C           9.35545355338369   -8.17503253444939   -0.60738029882916
O           9.86370905427469   -8.93330058937698    0.19034362012695
C           9.36292850424464   -8.13746560572482   -2.05469000263832
C           8.58495117289094   -7.04009246122286   -2.46014576616338
C           8.63903617342918   -6.96353758692554   -3.91065339829330
O           8.18315106112006   -6.17461260711498   -4.70515555431178
N           9.43380656134475   -8.06635643511784   -4.28239645033983
C           9.65455122364103   -8.37784291663217   -5.67484645329694
C           8.71710795737055   -9.48016011374155   -6.16063856425732
C           9.87302642639985   -8.77992852359836   -3.19765055845168
C          10.69098670237864   -9.92209909912603   -3.28242851519183
C          11.13611896021913  -10.59900093544337   -2.18053361797853
C          11.96764035048368  -11.73703611823091   -2.22213139688736
C          12.47057848384602  -12.40142423988804   -1.11596407916130
C          13.28791789536648  -13.47911431726850   -1.54614249201642
C          13.24599466177183  -13.45992581255903   -3.02323860009904
C          12.46065143636515  -12.42397705505550   -3.41129727448238
C          13.86620472305140  -14.36837588478462   -3.88890236864279
N          14.36530216363913  -15.10169780361684   -4.61940597092625
C          13.97795491767368  -14.38880610116513   -0.77708582274103
C          14.80303415504447  -15.44785438363710   -1.25484542166959
C          15.21532439938577  -16.21920970438699   -0.19135753090441
C          14.68826353550755  -15.61449908353945    1.02452349424369
C          13.94655216326767  -14.52683908785288    0.68776723507646
C          13.26944413218683  -13.69584724532874    1.58827018049690
N          12.73809062565670  -13.02218824217028    2.35122783241609
C          16.05218512004095  -17.36265481033150   -0.21432054478197
C          16.33031026306254  -18.20308767532966   -1.24818753235159
C          17.54805540985049  -19.07420096103241   -1.13460472298165
O          18.19406003253248  -19.26741313351826   -0.13346331966090
C          17.77534133355917  -19.56498984086003   -2.49630307506824
C          18.71765422436866  -20.29739470086295   -3.15538347578110
S          18.29331275606717  -20.46230018928751   -4.84270309941400
C          16.84258733233406  -19.54996890762033   -4.63460397309203
C          16.70159587597996  -19.14034071184667   -3.34632677314905
C          15.73092342852966  -18.40272270916575   -2.55667444053393
C          14.44185189654915  -18.17419709863305   -2.95982269461720
C          13.99703696918072  -18.54379307111066   -4.24820133922169
N          13.61170302498037  -18.84812195384809   -5.28425434211345
C          13.41477612866127  -17.64490445119693   -2.15841957318084
N          12.53237930626067  -17.23839272437186   -1.54618293037506
Cl         20.12993113436230  -20.99077501076151   -2.52838378449402
H           1.40552185319754    4.30000769285428   -7.21702854379066
H           2.64270185030550    0.37977846169722   -3.11942106695345
H           4.47396562864360   -1.11968580019415   -1.83875838332696
H           3.38560894719129   -2.32814191341659   -5.84960855790497
H           6.60009261494795   -5.28626559278856   -3.42561726420174
H           7.34087444384587   -4.32632104128713    0.73916531120895
H           8.38302421502416   -7.78761478913206    1.67212717043378
H           7.32354958704383   -6.41196739963603    1.29894491493405
H          10.36462137211737   -6.38430256625050    1.71985539497762
H           9.16115502278058   -5.68338633994554    2.80357435858566
H           9.45814328980417   -4.95771177560551    1.21665638571108
H          10.70157845762936   -8.65403621886994   -5.82648860827328
H           9.44971417004536   -7.45609196783114   -6.22620314693544
H           8.85686533892762  -10.39557872212389   -5.58937645697711
H           8.90845321184455   -9.68861217733179   -7.20940610008313
H           7.68395486131193   -9.15926748861578   -6.05458920286212
H          10.97473123608730  -10.25785001796606   -4.26905944033980
H          10.85002542273826  -10.25227020483222   -1.19589535716302
H          12.28639917037670  -12.13622512746484   -0.09301630012866
H          12.22927223680334  -12.16262460578229   -4.42701459867978
H          15.09447950644800  -15.57595806786931   -2.27790995195978
H          14.84971293032055  -15.99842698708207    2.01478083154535
H          16.60333370345182  -17.57118825030880    0.69890134937737
H          16.20658403566187  -19.37096249106420   -5.47859076103723
