113
 SCF done       -218.606256657287          0.000511063023
C          -1.63640351913901   -0.21620899055320   -3.72219120214659
C          -2.78802512625538    0.43886522234118   -3.41354216457126
S          -3.72701344064923   -0.45445717409527   -2.27306700956842
C          -2.54464485917511   -1.74275756350850   -2.21180997953593
Cl         -2.76473615751110   -3.09928645360591   -1.22297004112058
C          -1.49593224812450   -1.46344194990004   -3.03435560969906
C          -0.23482163351108   -2.11072754348586   -3.41886703424400
O           0.15401576582378   -3.20658495921775   -3.09142671940929
C           0.40388816582282   -1.15505223278485   -4.37605860757677
C          -0.47364051943791   -0.01086490668417   -4.56290026954202
C          -0.26872572004614    1.10375631144138   -5.33581192547935
C          -1.22170330327245    2.14236364123168   -5.38846591783606
N          -1.98450131658754    2.99760743114925   -5.44873675541955
C           0.85612167576841    1.36922393877265   -6.14064246252794
N           1.73950791964936    1.65951352719449   -6.81515339576627
C           1.55862081093963   -1.36634313116531   -5.07562402457482
C           2.55668775640735   -2.35140253983056   -4.88038356272032
C           2.87830225504677   -3.09742231108351   -3.76310910370272
C           4.04322217709677   -3.86912253464065   -4.03959602783901
C           4.40906957935681   -3.58694452833135   -5.43604112911206
C           3.53274559570275   -2.66628500469006   -5.91668066332710
C           5.41391883665856   -4.20697197436669   -6.19002074210752
N           6.19012145113864   -4.72064279065073   -6.86289840779466
C           4.72372332611759   -4.69026674074718   -3.16566154434827
C           5.94002375070537   -5.37523288532506   -3.40545864134967
C           6.26400465358239   -6.13826593099395   -2.29731216186178
C           5.22501934922619   -5.92660016631949   -1.29698255059798
C           4.31930182830821   -5.04263073973909   -1.79046665275551
C           3.22501762514458   -4.55230963741025   -1.06684967546309
N           2.36656431263885   -4.16492233245450   -0.40954199840975
C           7.44893673154165   -6.90950394164720   -2.20985068370186
N           7.71525128214548   -7.95977776416777   -1.36577555982567
C           6.84042341180477   -8.57851847130613   -0.39706203494749
C           7.07011221240595   -8.01560740454703    1.00331966132448
C           9.00510141110013   -8.48904637562451   -1.57378552859403
O           9.46501418811899   -9.42690606592897   -0.95672023135206
C           9.55107115480897   -7.67174216717983   -2.62749617206840
C           8.58550269841266   -6.72174162313254   -3.00952488327425
C           9.20045263550189   -5.86401006443669   -4.00744466022473
O           8.81659095207023   -4.87640743022718   -4.58885447058294
N          10.49976545681215   -6.41151985022965   -4.19154355092909
C          11.42931315631874   -5.79679811535566   -5.10871694602642
C          11.27893137715477   -6.36752907947416   -6.51727749324755
C          10.71087082015669   -7.48306537846094   -3.37950313001677
C          11.85306132464423   -8.31650553350770   -3.21655162635065
C          12.91306443879789   -8.51480349111091   -4.01835986742774
C          13.94202898105574   -9.45308639168210   -3.57559768107859
C          15.27198235511958   -9.03452445013379   -3.39920148069282
C          15.60684629048834   -7.63194739643435   -3.71424031912040
O          14.75336048209449   -6.79673771090520   -3.94231532089720
C          17.04301124068098   -7.27435137699783   -3.78019507213890
C          17.98907914214957   -7.89258805421319   -4.54068139084365
S          19.51001177880785   -7.09775921785886   -4.46209044326832
C          18.87518590164359   -5.91237631076136   -3.39503347815912
C          17.55525137104536   -6.11264046211829   -3.12201697417037
C          16.73941397468772   -5.35825954594708   -2.13758787680836
O          15.99417543552705   -5.95003035542259   -1.38539683587015
C          16.91260527900836   -3.88992723099081   -2.10892438685365
C          16.57352330774528   -3.20876385880925   -0.93978023451998
C          16.71351427676260   -1.83697126795948   -0.86614205051616
C          17.17690040357021   -1.12941820511857   -1.96453181507326
C          17.49289800402908   -1.79643236782298   -3.13778215587241
C          17.36488038877674   -3.17091169534697   -3.21391868864395
C          16.20263392188657   -9.93039955352581   -2.87163273818834
C          15.83542154711013  -11.21885078380178   -2.55861659048489
C          14.51632521849018  -11.65851445693915   -2.74661815899422
C          13.58388768783489  -10.75618815994082   -3.25729869173852
C          14.21583184469254  -13.04572393288172   -2.48963361702619
C          13.06442022766083  -13.72718139429595   -2.29615023811495
C          13.14962727118054  -15.22448213851123   -2.46092509471332
O          14.16477586467620  -15.87453921025015   -2.50532016996173
C          11.76197806342531  -15.65956316210421   -2.60664309588273
C          11.10119777352319  -16.82003078059516   -2.88506631279232
S           9.37695815724479  -16.54944191476890   -2.90663225042510
C           9.56887494159844  -14.87629294268920   -2.52631320212210
C          10.88186437550704  -14.54725362819457   -2.39772320090146
C          11.66928474774523  -13.37365181767404   -2.05505483178502
C          11.16325704881283  -12.27877145043379   -1.40877928559876
C           9.77535898372270  -12.18468249879037   -1.15986915383059
N           8.64282895538666  -12.17563795913637   -0.98121756299241
C          11.96708621102765  -11.25141682034078   -0.87827853632962
N          12.64231465742231  -10.43856577829499   -0.43235348558534
Cl         11.76113607623940  -18.35064272854005   -3.18416834418295
H          -3.15574330344757    1.37899938933563   -3.77365633426622
H           1.76033688724792   -0.69641252289761   -5.90419687799993
H           2.37748144048092   -3.07847418383693   -2.81675098763907
H           3.52455555568494   -2.24558871488266   -6.90563983985716
H           6.51570134172264   -5.30450648494558   -4.30637584729009
H           5.20242253363533   -6.34608303281595   -0.30979521212562
H           7.08747006382209   -9.64509362918967   -0.39429287423450
H           5.80459511738736   -8.45536751040953   -0.71926172631418
H           8.08454269788283   -8.24085801090505    1.32245256181671
H           6.37579908522921   -8.47182542285382    1.70352138739328
H           6.93594061538538   -6.93584414079066    1.02415905407770
H          12.44313743087289   -5.92529103153441   -4.72424995558996
H          11.18640331974732   -4.73042661313054   -5.13060459454906
H          11.41820507187977   -7.44692590349602   -6.52087517662227
H          12.01352613198853   -5.91502641937677   -7.17738139722272
H          10.28511618197890   -6.14686817364012   -6.89932499216359
H          11.81625805983959   -8.87201953202371   -2.28606947593403
H          13.03468990807633   -8.03373585160424   -4.97568944843329
H          17.86988374776712   -8.75139963512645   -5.17173112544049
H          19.51930932520975   -5.15038959964569   -3.00265201270426
H          16.20794820327656   -3.77938366076577   -0.09910444254078
H          16.45784951334342   -1.31614032825851    0.04441890623879
H          17.28395692224319   -0.05625372953994   -1.90980777201346
H          17.83768840162223   -1.24107129846357   -3.99743690122816
H          17.58940464358024   -3.68237264323559   -4.13800861516874
H          17.21467841221461   -9.60347173031644   -2.69003482999894
H          16.56368015216487  -11.90039724951927   -2.14535643206973
H          12.57205461028014  -11.07681607659492   -3.45469235294155
H          15.08615722711653  -13.69790880493931   -2.53521510869744
H           8.69887627039150  -14.25781273867120   -2.43270365263530
