104
 SCF done       -196.442059577412          0.000470736990
C           3.54838428262134    1.55196295852455   -5.98278419342494
C           3.32589928445856    2.56413934875061   -6.86493438650540
S           4.42442723501511    2.48692396251811   -8.19354605223750
C           5.20152728715743    1.05894837149579   -7.55128390699563
Cl          6.49318596271830    0.31882312066730   -8.35930583894512
C           4.62283497744916    0.68995552741584   -6.37361517463141
C           4.80556953923355   -0.37292690807555   -5.38004653035520
O           5.60030159473926   -1.28338594481005   -5.41776475079534
C           3.74266539366833   -0.11921920882435   -4.35368705524772
C           3.00061414724410    1.08167661213811   -4.72844694852306
C           2.00241857925737    1.70936845607175   -4.03240246251899
C           1.39319993881432    2.88289750970244   -4.52618057454723
N           0.88532538787844    3.83535253337985   -4.91463075867377
C           1.47859479299164    1.30652714063273   -2.78787956871133
N           1.01078401838679    1.03934344684121   -1.77376229944971
C           3.39675382133924   -0.95334103401975   -3.34111174706518
C           4.09638723786279   -2.12254951953556   -2.86998646260157
C           3.34974201951011   -3.18404397834697   -2.36000078005568
C           3.95899360988712   -4.35714445157511   -1.94608283973366
N           3.07468890158298   -5.39634830483398   -1.49797772290438
O           2.03675950812404   -5.04143293521620   -0.96988523101426
O           3.38347197927263   -6.55545605228344   -1.67466307033295
C           5.36260081312449   -4.50842564191717   -1.96335456021611
C           6.09516299010769   -3.38676126512210   -2.38595127316316
C           5.49437674670015   -2.23857981209992   -2.83983113273304
C           6.01745721382080   -5.69781661949259   -1.47703136259319
C           7.29834436453561   -6.02245569631942   -1.72613991255862
C           7.98324957034667   -7.20499885206625   -1.23612275243450
C           8.95329764522745   -7.76280781880579   -2.07673388863907
C           9.64621009150105   -8.91061347038374   -1.74102452180540
C          10.65294715380492   -9.51581958459522   -2.68296209548607
N          11.74240665380324  -10.13415501214013   -1.94323175599239
C           9.39291682796273   -9.50419484490629   -0.51002859531503
C           8.47317194643795   -8.93971808173656    0.35208388850783
C           7.75679073152127   -7.79763056257076    0.01660718966677
C           6.79120320389021   -7.24442697507112    1.03281349492821
N           5.45657570960134   -7.74892630004428    0.77116949199053
C           4.36205563909689   -7.20907271072498    1.40349923377560
C           3.20424358087043   -7.84448923336629    1.58302582578507
C           2.01663607645599   -7.21905273458057    2.23569681611181
C           2.01424349410800   -7.47979384795712    3.74735157199078
O           2.95289019019979   -7.41833788306437    4.48550433912246
O           0.77790009768685   -7.79319720042194    4.15718559772870
C          -0.16885161372708   -7.70023479686741    3.09562435603994
C           0.66510028303832   -7.79462107890508    1.80936347498371
C           0.00709954728029   -7.14458362424481    0.60289204306610
C          -0.41921517293288   -5.71247516127028    0.88375318622625
C          -1.40008920347070   -5.59950076653825    2.04420413164663
C          -0.99433152347519   -6.40683918400054    3.29795176749485
O          -2.21838485113833   -6.76594364690134    3.93286856603228
C          -3.25880499493375   -6.70335971438670    3.10611922860820
O          -4.35509701173157   -7.08352534639767    3.40090408306653
C          -2.85292188673751   -6.05574840381829    1.78011772598683
C          -3.10777920263285   -6.91270228302813    0.58415430975900
C          -3.74051681728371   -8.09448198497326    0.58490119697380
C          -4.07240675099182   -8.77975233884363   -0.62267655153011
C          -4.57602849991829  -10.03395362859473   -0.73444369622371
C          -5.28173167632527  -10.44909398774447   -1.98785204964385
O          -5.24056003848076   -9.89035436410068   -3.05653591019265
C          -6.05717985534499  -11.63131617186479   -1.58824745086876
C          -6.97995196464811  -12.46137347135713   -2.15057687131657
S          -7.47731107352047  -13.68930652034911   -1.00928092884515
C          -6.42339317307536  -13.07366961074585    0.21099007117825
C          -5.74085229131253  -11.98577013101906   -0.23416518022999
C          -4.71963878153219  -11.08314651157301    0.25940322803207
C          -3.91265754338992  -11.31980278899751    1.33968800465157
C          -4.13840678612584  -12.41557436592943    2.19940319835359
N          -4.32382508146356  -13.30242654583868    2.90249356721472
C          -2.73414747310012  -10.59879750685546    1.60689248937339
N          -1.72951978848663  -10.07858811400427    1.80257485241708
Cl         -7.62072316393854  -12.40463685175194   -3.71755199584892
H           2.59455924361162    3.34704388463388   -6.83311004159466
H           2.45864199131938   -0.76191238214120   -2.83359524730112
H           2.27148920772170   -3.12197444744535   -2.32163104425594
H           7.17163301996658   -3.42590640155948   -2.34302704410033
H           6.10612514357874   -1.40623483987319   -3.14424584409013
H           5.41271254814252   -6.40024911842393   -0.92328180578886
H           7.88341664023340   -5.42126402455969   -2.41144735163282
H           9.14163423944936   -7.29121808750948   -3.03177607905914
H          10.98571629310085   -8.74599395052311   -3.40080697769071
H          10.15920735915534  -10.30865361949738   -3.25796486698842
H          12.25001653223558   -9.43224054112366   -1.41420798071138
H          12.39387615872628  -10.57973072221400   -2.57913859360732
H           9.93643182458200  -10.39458737262284   -0.23732049056983
H           8.30636661208920   -9.39527977115171    1.31801064649889
H           6.76029265526574   -6.15180029512283    0.98260823999139
H           7.13338057568473   -7.52903592542108    2.04002891829447
H           5.41323640794239   -8.75023011875114    0.63926772670067
H           4.48229309854667   -6.17511014752234    1.70082179671877
H           3.10729466109238   -8.88220877933390    1.29982217112436
H           2.05339256891218   -6.13223538310319    2.10736879681718
H          -0.85127315542540   -8.55032828368500    3.19076247057226
H           0.80142737409564   -8.85880551810754    1.59191015361150
H          -0.85703162691406   -7.74941610524794    0.32251781711439
H           0.71316372527003   -7.14857958436440   -0.22717710117590
H          -0.86155926141299   -5.27398837800432   -0.01083965522378
H           0.46340874505066   -5.11354802657525    1.10977960981979
H          -1.44288565803407   -4.54688363533954    2.34470069558853
H          -0.44594303178708   -5.78012522674043    4.01002434026387
H          -3.49323364536033   -5.17363735766620    1.64457916072778
H          -2.79554116536662   -6.48125086921966   -0.35882515678397
H          -4.07037831674325   -8.52979903532328    1.51660430336221
H          -4.01118247203448   -8.21333398357254   -1.54594141861406
H          -6.39090214332528  -13.54982955585236    1.17090376205461
