83
 SCF done       -174.336960739456          0.000577216113
C          -1.90023890124674   -1.51993858537270   -6.06901016065150
C          -3.12024475557481   -1.05766560091729   -6.45418940891570
S          -4.20009897345209   -2.35910330117370   -6.79884997330954
C          -2.98499606603099   -3.55536808945500   -6.41226201338386
Cl         -3.31298414723743   -5.21374315573602   -6.52056251728704
C          -1.82021614222811   -2.94994168027098   -6.04627691196104
C          -0.48496910419764   -3.37056443374348   -5.60787973956723
O          -0.09150100246697   -4.49658055062230   -5.40809985885758
C           0.25381668234761   -2.09264590571318   -5.36662332909419
C          -0.62112566304259   -0.96989138633625   -5.66792596275216
C          -0.31537710009129    0.36477551847714   -5.64971831863197
C          -1.27690064437601    1.34109614266329   -5.98635917569222
N          -2.04795917414767    2.14719296314583   -6.25403481129507
C           0.94369071181141    0.91404270348118   -5.33444143815697
N           1.94844472283080    1.42080258262347   -5.10791562227051
C           1.48602584388811   -2.01377810433822   -4.79169222508727
C           2.40269134956451   -3.08191083790762   -4.59081495124445
C           3.30704219870132   -3.15412987301421   -3.55244192269602
C           4.04138067607241   -4.37321846450828   -3.65529549924725
C           3.57214599845469   -5.02479328166994   -4.88656932750850
C           2.59311591543907   -4.25389562767575   -5.43241312568795
C           4.04972348293209   -6.22130890321711   -5.43261135100534
N           4.43403332313509   -7.19882560195360   -5.89866548971824
C           4.98017539994141   -4.86547852546772   -2.77518562841591
C           5.69580256722730   -6.08476411531539   -2.87445325004695
C           6.50568659923924   -6.22413195612416   -1.76461049000087
C           6.31685489269403   -5.05480440816787   -0.91689831006239
C           5.41600741222954   -4.23321013092877   -1.50981946779405
C           4.97929820677048   -3.01124861638051   -0.98448512292151
N           4.64222752945715   -2.01581568329249   -0.52160399948582
C           7.36397752169066   -7.29870599535445   -1.46538967226870
S           8.26185185993056   -7.38527245457945    0.03491888115446
C           8.98547416659330   -8.91728875828077   -0.35298233079350
C           8.54990848728602   -9.33577564537958   -1.61030342556280
C           7.64229277390805   -8.42870010736976   -2.22102278500266
S           7.15401901755265   -9.03406808996341   -3.76288183973855
C           8.18891923284455  -10.41999504698366   -3.45811496635874
N           8.82378982650079  -10.44303279247919   -2.34978752929938
C           9.85319878489842   -9.56099636918107    0.56099915614181
C          10.45978212616513  -10.74131236363276    0.29158468317619
C          11.32992950904348  -11.45936514045987    1.18237581124250
C          11.47270375145209  -11.13513322881773    2.53627880419841
C          12.31696116408895  -11.85949215149500    3.35255624445060
N          12.26111402894537  -11.55040903954687    4.76273309017748
O          12.19312702319777  -10.38138502241611    5.07236390137776
O          12.23766947602216  -12.47995153891024    5.53974549612147
C          13.10524809262376  -12.91522190874282    2.86000304276185
C          12.91623202869880  -13.26184442008532    1.51527985849954
C          12.05285089719705  -12.56393186039974    0.70391232454379
C          14.12976204965822  -13.58504742062909    3.62319757386750
C          14.88136529008654  -13.00555834099138    4.58317588898425
C          15.91435204587682  -13.69303302461122    5.27304166462767
C          16.82231768880079  -13.15012857761544    6.12491290906220
C          17.58258769642405  -14.04762151360919    7.05413401328154
O          17.68758359700553  -15.24620809808041    6.96519668821331
C          18.10277636862148  -13.14265309236238    8.08500961825993
C          18.78035946480459  -13.24959340477811    9.26283181569421
S          19.04091737889778  -11.66999930236664    9.96481245984737
C          18.24106647861015  -10.88357927335588    8.65329165127209
C          17.79624624727137  -11.78490945024840    7.73767442906744
C          17.11899209585916  -11.76604822168707    6.45395575425698
C          16.98772365932893  -10.65452589831002    5.66477636455557
C          17.37121853441591   -9.37837391350548    6.13181976395209
N          17.66785807563815   -8.33485606342561    6.50381940068203
C          16.57872761284889  -10.65215672750728    4.31580547142353
N          16.29352020901765  -10.59974100878234    3.20505164789278
Cl         19.33571285542710  -14.65590881122738   10.02533437507324
H          -3.46435120927468   -0.04765847684710   -6.55660484323176
H           1.81049082905468   -1.05517157834054   -4.40325318993088
H           3.41049986020028   -2.43789777712520   -2.76047902026337
H           2.07891597268686   -4.44673062727824   -6.35330135107027
H           5.60625418627583   -6.78176983167849   -3.68308246936531
H           6.82267923866580   -4.89305032431026    0.01729356082031
H           8.26189234903405  -11.19829558896067   -4.19251334083038
H          10.01368745193692   -9.04553173903599    1.49734008261198
H          10.29244808766657  -11.18618670570057   -0.67999812636611
H          10.89765023128077  -10.33737429198860    2.98055795562618
H          13.48961798442955  -14.08103783179834    1.10866469382393
H          11.93662541458385  -12.85515213265229   -0.32921434389235
H          14.36864765521492  -14.59321115784077    3.31033798764146
H          14.71054806558747  -11.97523187959205    4.85740710461899
H          15.94437685952781  -14.77311355784872    5.17948565631913
H          18.14730806704781   -9.81573551397139    8.65816881173141
