107
 SCF done       -206.011199896662          0.000829497522
C           0.21536322008138    1.63338964258188   -1.84180781319927
C          -0.63887222532476    2.62243826464677   -2.22136978942057
S          -1.29248701473866    2.31439851298559   -3.78818456001210
C          -0.40045762323216    0.81801968702986   -3.93883068274107
Cl         -0.51796253140818   -0.14775467771688   -5.32345160872102
C           0.35345855528949    0.60127693850710   -2.82411163198638
C           1.28580380153495   -0.42608805853581   -2.35013956003817
O           1.57285903960317   -1.46484513829093   -2.89530267869875
C           1.72700866816780    0.05730071665762   -1.00043383818867
C           1.05436847864827    1.31519285863523   -0.70471511184413
C           1.19303844416031    2.11131445748580    0.40201306618961
C           0.47706088361295    3.32126584468220    0.52707115034091
N          -0.09905961752667    4.30563046322179    0.64950738136463
C           2.02554027211715    1.86012252972957    1.51067790919411
N           2.68252673523794    1.72225589562779    2.44227794953997
C           2.51158677493554   -0.62860986340262   -0.12169310403269
C           3.30312905629626   -1.78399122223286   -0.35631601878129
C           3.86093790721065   -2.25724173758940   -1.52182674663613
C           4.61843292039698   -3.43447401017182   -1.23372019693390
C           4.49747074262470   -3.65720314174822    0.21789879338023
C           3.73606804664063   -2.65815801414940    0.73116935210337
C           5.06554258156901   -4.70413557533430    0.95466561142460
N           5.51484081926412   -5.55313481404077    1.58323051406001
C           5.30107040160362   -4.21368638516860   -2.13672890639295
C           5.98336690115214   -5.43901895756802   -1.89445888519543
C           6.47207318155376   -5.93061404341360   -3.08929309109731
C           6.11810020781981   -4.98039294312808   -4.13979116716651
C           5.43026939266112   -3.95131377717646   -3.58756332200000
C           4.98383647419488   -2.82645282982300   -4.29380044228319
N           4.67058066333156   -1.91337169603857   -4.91544660752205
C           7.18567254319492   -7.13550183139784   -3.29991706331790
C           7.66137554239192   -8.00895682063203   -2.33847106853922
C           8.32758548714463   -9.08942759520220   -2.97883686036162
C           8.20436395253700   -8.84603434122892   -4.43083790720347
C           7.53544276086575   -7.67880796518546   -4.60626716510277
C           8.62955451488902   -9.68245385503577   -5.47113034418609
N           8.91867527190026  -10.35158440725536   -6.35816469914165
C           8.98533180901738  -10.14430594000192   -2.38783918378511
C           9.70885642970366  -11.18200738082162   -3.03997373340260
C          10.19042293167800  -12.06138874348258   -2.09500523406609
C           9.77258356869542  -11.57651071801831   -0.77950427383065
C           9.08193091707274  -10.42047485376438   -0.94014207382652
C           8.56501881542085   -9.64378994804789    0.10370398074509
N           8.15600329776655   -9.03159825887580    0.98457862985478
C          10.97058575333870  -13.23530441867096   -2.27987638134641
C          12.03725421791721  -13.47140256912739   -3.13647791853450
N          12.65678264355511  -12.59190173043225   -4.04990516058775
O          13.65761024677221  -13.00177259263820   -4.61128064891482
O          12.18963396825391  -11.47930690655147   -4.21136635510822
C          12.60161348116233  -14.76183229803738   -2.84560156458721
C          11.92776493583488  -15.31465367478792   -1.80359040346793
C          10.87202297285915  -14.42578176523531   -1.41644257092999
C           9.83670318494125  -14.69901491925654   -0.54368340426982
C           8.50188038086856  -14.20440695681597   -0.63495853992025
C           7.72867277714981  -14.87767033828592    0.26250278600030
C           8.54361746743509  -15.79145163524225    1.00569621654437
N           7.96416039675593  -16.57663743246019    2.01743073223328
O           6.83660808081053  -16.28122843871469    2.37043972401538
O           8.59027468957067  -17.51810486629029    2.48409535356321
C           9.86915307312751  -15.68672136093340    0.55963988204962
C          11.10756679669882  -16.11185283520507    1.07189364656048
C          11.35967437928994  -17.06503884387707    2.02514108528253
C          12.67146727447016  -17.36257293189523    2.43592533762851
N          12.97709378946688  -18.33355259386227    3.35610478013865
C          12.03763515987787  -19.20380174646969    4.02700640767000
C          11.58785377330512  -20.35258174894571    3.12930809164892
C          14.35929330630953  -18.45355045131666    3.56681742501237
O          14.85932645402277  -19.24407445200776    4.33712174572681
C          14.94234300896236  -17.44893342528148    2.69363368839333
C          13.88930771962965  -16.79264047199338    2.02285218472490
C          14.47347079818999  -15.78994181423036    1.15824265836760
O          13.98301304355068  -14.97747569471290    0.39935906788960
N          15.86310735931857  -15.92577833633566    1.35447899024903
C          16.79432663573403  -15.05084086309691    0.68122385831448
C          17.27285329268482  -13.92359910663319    1.59226182673114
C          16.15558259223176  -16.89937142812080    2.26842498033571
C          17.48817308153290  -17.25317150014483    2.65364094466020
C          17.75367179987039  -18.19553564875712    3.56433046211326
H          -0.93391135582201    3.50782374147221   -1.69411332397825
H           2.54387287842802   -0.27215583525451    0.90191573699897
H           3.76652650942752   -1.82402711021437   -2.49610219343331
H           3.46536214391458   -2.52420728720264    1.76247235879971
H           6.07018862393182   -5.90927561284250   -0.93487875417363
H           6.38113956159782   -5.07774511109399   -5.17638823757678
H           7.57369774455290   -7.88641841680619   -1.27695589498628
H           7.28298675932392   -7.23464488621058   -5.55072072840316
H           9.83216509872500  -11.26502759150802   -4.10053338780656
H          10.03842823260493  -12.03734056873023    0.15343335476712
H          13.42720093270713  -15.17917738689105   -3.38980738418707
H          12.07236183662778  -16.30206591271400   -1.41241340837898
H           8.15017084401835  -13.51562561990058   -1.37785424455391
H           6.66990847570007  -14.77948251692464    0.41330871035863
H          11.96219751499975  -15.59748316746669    0.65334209962416
H          10.54712511723506  -17.62365077173873    2.46232950533242
H          11.17765136092514  -18.62064035222267    4.36386889073329
H          12.56357746528588  -19.60153862689539    4.89904982706458
H          11.06253800350619  -19.98006596556275    2.25345014253342
H          10.91695213571738  -21.00262296577303    3.68279883746038
H          12.44744869344778  -20.93415376880652    2.80443301142326
H          16.25234485643748  -14.62881301960902   -0.16963996822178
H          17.63816527862947  -15.63528587971942    0.30575630244369
H          16.42651432202094  -13.32549193347484    1.92083750118790
H          17.95965130288454  -13.28148302653394    1.04844318708153
H          17.78069031213084  -14.31707896489396    2.47001993121357
H          18.29440890067551  -16.72160718990766    2.16774177785987
H          16.96855284539938  -18.73818636855252    4.06495914521780
H          18.76775207064029  -18.44126835746220    3.82809930673063
