90
 SCF done       -175.807538231353          0.000357251753
C           0.61314932569500   -0.02715932858184   -2.54647986400810
C          -0.44180664635871    0.73559824954061   -2.94025545527885
S          -0.45934783122620    2.25015893594358   -2.11246717359013
C           0.99294764043904    1.85264796556071   -1.22205873397341
Cl          1.66378000733619    2.92974050990967   -0.10036668191007
C           1.43459928240395    0.60984083391266   -1.56050579764599
C           2.56105148486353   -0.26332041991990   -1.21095873969320
O           3.54576331629199    0.01881365652299   -0.56783227033403
C           2.31247475461416   -1.51991645501913   -1.98220926538931
C           1.15785867965948   -1.33853405100201   -2.83885728411595
C           0.61047282140623   -2.23472429539727   -3.72116055597074
C          -0.54820810625948   -1.92271169922786   -4.46185749530141
N          -1.48815425836685   -1.68504321205632   -5.07555268981631
C           1.10988914620917   -3.52332639941598   -3.99019894729924
N           1.47172657472519   -4.58265086075422   -4.24679558756544
C           3.14226511004759   -2.60592681472911   -1.95994627686034
C           4.05502070542899   -2.87607227457022   -0.92158931583130
S           5.47220409503170   -3.83298760489157   -1.18869279666241
C           5.95429222803375   -3.78571158656474    0.47624533326257
C           5.03891057140986   -3.03016793585495    1.22083877495918
C           3.93408683406243   -2.56123783726809    0.44430344929225
N           2.87394160182895   -1.96513579408669    1.00659393192148
C           2.96727452773355   -1.71751422566538    2.28341280040995
N           4.04864808696980   -1.87797450557457    3.04972702026153
C           5.07639196228408   -2.52208811054289    2.54820938955794
C           6.26511296246986   -2.56877852451545    3.32879056274957
N           7.24002448339521   -2.55100522772408    3.92919665437561
C           7.00509687469521   -4.57272016160733    1.00938228383896
N           8.15401019256850   -4.96046278125083    0.36552643692701
C           8.65897956201165   -4.45544842721947   -0.88856001310331
C           9.02105765889541   -2.97634005739741   -0.80280063565673
C           8.92593863015642   -5.83813377395479    1.16213143873535
O           9.99045062020543   -6.29679515941536    0.81204159176691
C           8.13883873949787   -6.00558559229521    2.36225791223107
C           6.98151202051818   -5.20155070775396    2.25027158785262
C           6.15171053934016   -5.46632792247637    3.40579923322290
O           5.06536461672781   -5.03820110623985    3.73848762579694
N           6.88021425776259   -6.40791699920409    4.15626462151566
C           6.36984282089578   -6.83288575172564    5.43863207627536
C           5.44089505009759   -8.03818082366205    5.30651648519618
C           8.05638025367193   -6.75492784165040    3.53400113244301
C           9.03634014808899   -7.72053337468906    3.89639743507985
C           8.96064228424050   -8.70599675342541    4.81808633433961
C           9.97734892840045   -9.70080314280917    5.02900755234696
C           9.67710887197489  -10.88190780088430    5.73116089803167
N          10.54922223683714  -11.83737942196025    5.93476392155114
C          11.77774522517648  -11.65217428964702    5.45515937307393
N          12.17132324471157  -10.58659385802393    4.75291438550803
C          11.29732713649065   -9.62882404308057    4.55322416358563
C          12.75769193435044  -12.69449824047363    5.64402644852031
S          14.00389604935579  -12.86822923936170    4.46909616105301
C          14.64342853171306  -14.28292899357863    5.25264716742541
C          13.89581961029391  -14.60325812835705    6.38412765372202
C          12.83563801557350  -13.67568213984283    6.60829637094312
C          12.00471987167957  -13.70584305870213    7.82574155849648
O          11.46425301019589  -12.72933745855593    8.29933272744896
C          11.93563102654616  -15.04087444311000    8.45643619505383
C          10.91588535277199  -15.31358949706165    9.36285135286345
C          10.83513465869829  -16.55187962471632    9.97269671049956
C          11.78797730698713  -17.52208886451803    9.69734758052943
C          12.81858548850868  -17.25073224043062    8.81648084777117
C          12.89930224503281  -16.01503928603931    8.17923712951885
C          14.04573877888333  -15.76834702847826    7.26728927464610
O          15.00319607113096  -16.51915448128668    7.27590836706992
C          15.78065517064209  -14.85520586929631    4.57581905904790
C          16.60825982434520  -15.81050210060681    4.99481042320849
H          -1.20824088284670    0.51968914728410   -3.65795360708438
H           3.11095277995734   -3.31862523485822   -2.77457155159741
H           2.10206651957374   -1.28706103450942    2.76846986072031
H           7.92739363776247   -4.63014905163844   -1.68328713839981
H           9.55411554577115   -5.04770493226649   -1.09977258522666
H           8.14344207162933   -2.36695580684953   -0.59791124428162
H           9.45546905841349   -2.65119088232149   -1.74367751640343
H           9.74640343244312   -2.81414432394462   -0.00913980820761
H           5.79839738637554   -5.98872837471290    5.83673969547908
H           7.20772011535427   -7.03361739103750    6.10855468683717
H           4.56211335225086   -7.75812586808189    4.73141236601971
H           5.12049651473641   -8.36741480626513    6.29113841772733
H           5.93274713522160   -8.86514508320635    4.79826897652969
H           9.91235995122495   -7.66044926839534    3.26349900994779
H           8.07375932669629   -8.84283862650662    5.41837166693353
H           8.68152832050013  -11.06293263073000    6.11884212314247
H          11.66298861388600   -8.76927016278586    4.00731213438404
H          10.19419658684682  -14.53756608176572    9.56952893485114
H          10.03480257866651  -16.76082400200690   10.66672116598540
H          11.73033945734062  -18.48798860481443   10.17639969113512
H          13.57907782299196  -17.98744385356047    8.60416962171181
H          15.96078657260620  -14.38938567234278    3.61305465030907
H          16.49448039917249  -16.29606001159705    5.94635415353266
H          17.42651148368875  -16.12787994647526    4.37070244223079
