82
 SCF done       -170.828007904123          0.000700924420
C          -1.28313102880561   -0.56075257293922   -2.49084044037664
C          -2.51000292701181   -0.00830256930397   -2.69629581595872
S          -3.51174904441153   -1.04820651499850   -3.64006044748157
C          -2.25572478057522   -2.25772770646078   -3.76179108630633
Cl         -2.49715454885790   -3.70107113323946   -4.61319533610118
C          -1.13544405816553   -1.84771092190982   -3.10135408289941
C           0.20594545499633   -2.38012265553588   -2.84458454873301
O           0.65148347033618   -3.44962591662367   -3.18655013903103
C           0.86990353737765   -1.33555077819844   -1.99446981972203
C          -0.04932685990483   -0.21335043257046   -1.81903162571308
C           0.19120096715609    0.98024144361622   -1.19611076998750
C          -0.79956492461405    1.98380790328429   -1.12762011736628
N          -1.59455083752678    2.80773529708056   -1.06017610228370
C           1.40123241856231    1.36205914828200   -0.58159931968994
N           2.35852662481326    1.73705289619177   -0.07096036696300
C           2.04662376526380   -1.48586802782212   -1.34078880686026
C           3.01939968620164   -2.53687914148872   -1.52301922242431
C           3.31691409397133   -3.07533017473234   -2.77230925365545
C           4.24217588259298   -4.09744972613633   -2.89954406633564
N           4.48771315432424   -4.55281117545658   -4.24482142723265
O           4.44194367268825   -3.71545381738138   -5.12276103000401
O           4.73145280923579   -5.72553324906684   -4.43639456506066
C           4.94219002499690   -4.60782682497000   -1.78877790355864
C           4.66267594227909   -4.01843118040865   -0.54711254029606
C           3.73799783452750   -3.01039896015514   -0.41494790502294
C           5.94037438198341   -5.65091012838444   -1.90405106233237
C           7.00216384879007   -5.75440441533086   -1.08755010878588
C           7.99504250866264   -6.79352146145058   -1.20311030714708
C           8.60948632803454   -7.36710770834294   -0.09773093768329
C           8.39437024037541   -7.02618016600739    1.30359794528023
O           7.56259614432790   -6.20956164206463    1.64880758972027
C           9.27682030780739   -7.74653891955951    2.29034378077082
S           9.69392200301417   -8.63558934681764   -0.57077834723569
C           9.34025063012406   -8.38278490097356   -2.21939328949662
C           8.43194633905232   -7.37849447064826   -2.43395132641861
C           8.01808384232872   -6.91968464997668   -3.74341862225035
C           7.94983331193813   -7.71671074893265   -4.81750519859054
C           7.49361654116457   -7.32053174010122   -6.12725723204120
C           7.03366828543613   -6.08283982641981   -6.48595632028154
S           6.47025954010034   -6.01421892466121   -8.10119063305090
C           6.83790727214387   -7.65864484946251   -8.34454154290130
C           7.38555461365799   -8.24041777430807   -7.23021638401544
C           7.82673157952947   -9.62619757641147   -7.19321250623382
O           8.58469541199855  -10.12820181586503   -6.40103460711971
O           7.26447149521650  -10.35615190475515   -8.21533168337741
C           7.57757979296484  -11.66549615880176   -8.25580304137629
C           6.90964281474164  -12.55143213161446   -9.00973194226613
C           7.23453924244682  -13.93954681741461   -9.05568015297093
C           7.88296817521098  -14.72323269050145   -8.15500198768050
C           8.39522658338556  -16.04825137250292   -8.63804012153269
O           8.10605083998660  -16.59103249484217   -9.67676688040820
C           9.33976049720440  -16.48004425562449   -7.60268379776393
C          10.22210947417913  -17.50084016769155   -7.41258343548063
S          11.03813434795306  -17.32598854300522   -5.87664518067920
C          10.16780350652949  -15.88195926506055   -5.50633700445177
C           9.30892351076774  -15.55504319927381   -6.50841435161349
C           8.31187226892489  -14.53279337947164   -6.77607887444221
C           7.77897402000107  -13.72915563012126   -5.80426880222256
C           8.29351476352993  -13.71596889254850   -4.49052396665498
N           8.70763590538906  -13.67417455130680   -3.42124772288777
C           6.66391454946045  -12.88366578282548   -5.95946902142659
N           5.74167110385978  -12.20277610429779   -6.01368084367466
Cl         10.55764370175730  -18.79997281117721   -8.44627321909580
H          -2.89805409836572    0.93207990497260   -2.35849565260140
H           2.29340233410402   -0.77243073154089   -0.56326692621196
H           2.85009471669182   -2.69269297461573   -3.66573301679595
H           5.17352052054278   -4.38975593290382    0.32731037731861
H           3.53749741918456   -2.59272994645144    0.56054375294594
H           5.80433628860716   -6.37177265952559   -2.69654996199537
H           7.14019860991213   -5.06725068807142   -0.26461616989669
H           9.12176884285010   -8.82034298091838    2.21058139386123
H           9.03866854762872   -7.41802233083539    3.29833671563761
H          10.32289869748575   -7.53877488077265    2.07578624062136
H           9.83631603558152   -8.97732921155543   -2.96116103922435
H           7.74725436205569   -5.87583877988560   -3.81092431007770
H           8.20554141343441   -8.76052534463106   -4.71800646283548
H           6.98254889824448   -5.19622475538217   -5.88873236467633
H           6.65600751742488   -8.12148340316135   -9.29390587912275
H           8.43633139741054  -11.94576977292314   -7.65359457314631
H           6.11710331812771  -12.20300459234682   -9.65562087878880
H           6.96158230025331  -14.45560138508324   -9.97169472367807
H          10.36049282495806  -15.37508552493037   -4.58184864236072
