76
 SCF done       -139.817500135923          0.000971141284
C           3.10660204777332    2.85581098691818    1.57562607829340
C           2.86081700845466    4.10871570389076    2.04735364754774
S           4.02730865354932    4.56938192376999    3.23197118830305
C           4.86679085964673    3.04248790197186    3.09495889377855
Cl          6.24387331688242    2.70535748859636    4.02092370483280
C           4.25590166982280    2.24423466979129    2.17374498726335
C           4.45888525470749    0.90348738460996    1.61774049304440
O           5.30097516297586    0.09162211524335    1.92174740816338
C           3.34689647163482    0.73340801429595    0.62537878529026
C           2.52540319791728    1.94011314355997    0.61627691816419
C           1.42796509018705    2.20944723350428   -0.15502544532158
C           0.74613282256337    3.44169221652881   -0.05569369035665
N           0.17883004113122    4.43596673240420    0.01553596352559
C           0.85680810169398    1.34161819081701   -1.10723394807741
N           0.34748341866253    0.68015402985061   -1.89528308885929
C           3.09789711795509   -0.41032969389698   -0.05476947974811
C           3.95077310248047   -1.57064231545037   -0.07776312075849
C           3.43197610990703   -2.86738412269049    0.05461132114462
N           4.18550837840168   -3.94027649255528    0.02836257999610
C           5.50128064239080   -3.77354526310092   -0.10659641121461
N           6.08851662396158   -2.59118126914369   -0.28671046431295
C           5.33766839897522   -1.51910524368692   -0.29427957846297
C           6.34607391053912   -4.95589768068322   -0.07911603574425
C           5.82030385467422   -6.25067327073814   -0.00746553743399
N           6.58631915266973   -7.31847907428171    0.01635934093752
C           7.90685520978187   -7.13235950622815   -0.02233391732139
N           8.50656594822821   -5.94231690320346   -0.08837560303205
C           7.74271370714016   -4.87406340757745   -0.11927601228262
C           8.76279814705351   -8.31548326039001    0.01237895078157
C          10.14565943998614   -8.19450394305026    0.09623238317623
C          10.94068593637068   -9.34355972956755    0.13751281382070
C          10.26845906480538  -10.57376633908734    0.07793977932753
N           8.95783446316113  -10.69537852073427   -0.00621578770922
C           8.21816094050241   -9.60310844484475   -0.03460725067984
C          12.37348507208275   -9.20042744712249    0.24661716999725
C          13.26798795878196  -10.20614809450792    0.34378449767637
C          14.66779334270364   -9.97056953107162    0.47189068324975
N          15.60007166198504  -10.98111176880240    0.55905613335405
C          15.35125990336291  -12.39807273097242    0.46157190104232
C          15.12575747429334  -12.83854820511901   -0.98305382996889
C          16.90805862395397  -10.48423285609553    0.70092951369011
O          17.88505163525323  -11.20065439825377    0.80444287788882
C          16.74604289707075   -9.04959036379172    0.70257460313856
C          15.35473536489118   -8.76823222205132    0.55937332733073
C          15.19427278439770   -7.33506710620995    0.56129004340675
O          14.21621764266610   -6.61729140936476    0.46078900995785
N          16.50307018651248   -6.83810317779832    0.70071430645116
C          16.75177428512294   -5.42043783016483    0.78783927786296
C          16.97751671724993   -4.96816502951674    2.22880494850453
C          17.43167024924089   -7.84959992830602    0.78940454404559
C          18.84127090031000   -7.61598006849419    0.92678441856961
C          19.73168529838206   -8.60187968696491    1.05028800161604
H           2.07809173498751    4.79281725213429    1.78596754329594
H           2.17907303641718   -0.49969335366677   -0.62153459449341
H           2.37357670576285   -3.03222203664920    0.21260656474598
H           5.83648581467070   -0.58678013324852   -0.52003110007550
H           4.75136025248075   -6.41334658285642    0.02863066503507
H           8.24091874838070   -3.91527108255584   -0.17386664896476
H          10.59415675496105   -7.21312899379203    0.13548986410776
H          10.80843951037528  -11.51076854600223    0.09738567368248
H           7.14879277651362   -9.74187104811972   -0.10033603360766
H          12.73526067912846   -8.18061323752056    0.25759680442829
H          12.94231859807921  -11.23545416940598    0.33830876380607
H          14.49720166040927  -12.66742162268097    1.08971367671827
H          16.24603229214487  -12.88729493039324    0.85742038977027
H          14.26544163859372  -12.33322843571790   -1.41676988259130
H          14.95798409218077  -13.91142736358820   -1.01971256654927
H          16.00207273077084  -12.60294307239617   -1.58187799564857
H          15.85707699248642   -4.93407590351007    0.38818413588644
H          17.60639250686432   -5.15614880409202    0.15831557737307
H          16.10276276743348   -5.20132427893889    2.83084789850594
H          17.14282188971256   -3.89453996385548    2.25644849794878
H          17.83995027848736   -5.46790382334343    2.66456951713456
H          19.16694008649631   -6.58494201105795    0.92311255043241
H          19.43025425430329   -9.63565612942459    1.05631537321027
H          20.78346893370647   -8.39475312969586    1.14768403201102
