91
 SCF done       -182.234599739777          0.000606827182
C           9.96060863633432   -0.19715656339912    4.46852101296684
C          10.91156791192588    0.22526215101601    5.34356143563406
S          12.47047037448355   -0.37793686699602    4.91002378959220
C          11.82973362218821   -1.22299470040964    3.52101922742364
Cl         12.82956383594272   -2.13485032171727    2.50271149844713
C          10.48429490974290   -1.02631209216594    3.42316245979617
C           9.39888474447454   -1.44427767548086    2.53340491258102
O           9.47221903326887   -2.17136249159200    1.56335322754342
C           8.19035652005840   -0.76554913784210    3.05558497672980
C           8.52655693601991   -0.07380097682243    4.29297593193154
C           7.67543607921615    0.51820463897399    5.18459919281435
C           8.16683250223785    1.16299586468277    6.33987931825549
N           8.55742364311676    1.69749139737864    7.27684731830404
C           6.26547705294633    0.50586774321623    5.12017323973583
N           5.11956355786567    0.49356621027765    5.17695790598916
C           6.98720899031125   -0.66710675512526    2.42153642688972
C           6.52819429544689   -1.30087255945053    1.24550981274723
S           7.32086093900465   -2.62664103606348    0.43804787834459
C           5.29914405659418   -1.00759911369101    0.64371046684898
C           4.40524956406412    0.09705226438391    1.05780868220390
O           4.72780004501561    0.98080020048758    1.83277351750093
C           3.10986971784665    0.03477489675160    0.40375814763932
C           1.99438289420599    0.81828643849056    0.60560630114453
N           1.01612880224983    0.40208602319897   -0.23222653214804
C          -0.28190467063564    1.01665798286400   -0.35646102342292
C          -0.23769890547046    2.19820470728292   -1.32302464030708
C           1.47236854210906   -0.62392822705512   -0.98789502082769
C           2.77368112748764   -0.89525013700197   -0.62250327042728
C           3.69255990944882   -1.89700403914405   -1.13047424955913
O           3.42311409691869   -2.69880736966093   -2.00856975612728
C           4.99657280007594   -1.86785878220696   -0.43690217637754
C           6.00809953091995   -2.78877885245646   -0.66758172332425
C           6.08424802962079   -3.85735677529531   -1.62981688746783
N           6.03238777157136   -3.74253873818770   -2.99013214945202
C           5.92867519771507   -2.52883040382162   -3.76144296000369
C           7.13403726911635   -1.61608309677261   -3.55985750783339
C           6.20780648224627   -4.99373443879191   -3.61799839169920
O           6.21640093679200   -5.14081447271121   -4.82486652184251
C           6.37094863912928   -5.92643299505851   -2.52820243352818
C           6.30617902325958   -5.18611887143324   -1.31736924520736
C           6.45529533244380   -6.10611247918630   -0.21091728606439
O           6.45491303980086   -5.94645038684423    0.98993897235639
N           6.63374428013082   -7.35724639090613   -0.83564601089468
C           6.78256308569847   -8.56395852128982   -0.05911470001486
C           5.48750843955933   -9.37099430836749   -0.00781976481518
C           6.58558278329264   -7.26443126674559   -2.20831953032439
C           6.78371010579859   -8.36376121639404   -3.08064022498782
C           6.73878900151790   -8.23838676199021   -4.43462400543599
C           7.00147972077222   -9.30372017271337   -5.27211315726047
C           7.27864341301271  -10.25166077122111   -5.99213537640219
C           7.62932644602288  -11.28461584526302   -6.76084807204076
C           8.00516523526979  -12.27543357551036   -7.37319216286393
C           8.40141113456609  -13.32009197123861   -8.17112806920986
C           8.61234832817192  -14.62328379156559   -7.82488839168127
C           8.82500907682110  -15.61233741648318   -8.92365090113717
O           9.00316086513028  -15.35483119583535  -10.09140642139112
C           8.72892976732432  -16.92059489030163   -8.26785581854244
C           8.76950894773530  -18.23143227618681   -8.63487203454363
S           8.55431546387521  -19.26459080681356   -7.24078027714822
C           8.41820556356865  -17.90915526355115   -6.17986232668285
C           8.52895330353438  -16.73693740456273   -6.86007302526956
C           8.54079373114279  -15.31519122355412   -6.55416657188460
C           8.57680987705912  -14.81015499985721   -5.28046997340800
C           8.44815173224469  -15.65820447849369   -4.15909149113469
N           8.32718466178157  -16.32303674930368   -3.23149896424160
C           8.83082279233798  -13.48138567593618   -4.89260256671377
N           9.09689223423871  -12.45050203912256   -4.46253622018424
Cl          8.99351893997603  -18.87841483578341  -10.18482081076139
H          10.81129247741703    0.84988327880871    6.20885279224361
H           6.25828280212868    0.01511560485673    2.84805090539692
H           1.84911689649071    1.61999713484211    1.30200709009344
H          -0.60249068143030    1.35490168941237    0.63215638783161
H          -0.98862269877284    0.26461222735260   -0.71536449551824
H           0.46489349441363    2.94947481724886   -0.97082960319827
H          -1.22200072371928    2.65067076183063   -1.40092068842859
H           0.07446371264432    1.86877514627962   -2.31112009012256
H           0.86191433254615   -1.10447740852254   -1.72659734036283
H           5.00061502012787   -2.01363913252525   -3.50529599515411
H           5.87312863764783   -2.85165399057413   -4.80500674783728
H           7.19305115528054   -1.26348458103609   -2.53245125773396
H           7.05083481817890   -0.75404809994488   -4.21591322209042
H           8.05320416570185   -2.14646774133427   -3.79861082534272
H           7.05254523790901   -8.23913055935358    0.94973499589164
H           7.59996327868102   -9.16604092184720   -0.46601783556571
H           4.69367574548219   -8.77129367085255    0.43097422788553
H           5.63156000735157  -10.25787814370848    0.60291855423031
H           5.17843959000480   -9.67945001964209   -1.00421020533446
H           7.00669553130271   -9.32969036982551   -2.64916735426699
H           6.51641100856013   -7.28273624656497   -4.89585893800614
H           8.51972916653462  -13.09978189696706   -9.23029219350961
H           8.26147527906253  -18.07866419051182   -5.13328516927275
