100
 SCF done       -202.492279494729          0.000270725389
C           0.94365644951106    1.23805928050870   -2.27729114012320
C           0.02100956152451    1.94387278050345   -2.98606517562006
S          -1.39246348966279    1.00014189900527   -3.28246644646034
C          -0.73489205012507   -0.37386074555539   -2.42542344417435
Cl         -1.60132361432791   -1.81849327099450   -2.27396460484318
C           0.51212236351435   -0.08975890424414   -1.95590232058797
C           1.54665595071405   -0.77940381552185   -1.18407587950983
O           1.45566447212663   -1.82556687087697   -0.58692276080041
C           2.69715214290605    0.18816617957371   -1.14984993350604
C           2.27926061654093    1.44334877893459   -1.75512644598546
C           3.00112436708946    2.59942073782806   -1.88651052745931
C           2.46382883176201    3.73090312301465   -2.53661039179294
N           2.04218889111888    4.66240764606805   -3.05660115252571
C           4.31136760057027    2.80652083209721   -1.41181579668250
N           5.37768060567031    3.03173082272444   -1.05118180241326
C           3.89649493724789   -0.07489202684731   -0.56934210751683
C           4.33977544741240   -1.38908030899381   -0.25224573265863
S           5.40931235174947   -1.70211028455689    1.10045878062047
C           4.10332560771805   -2.56178787463726   -0.93473259171487
C           3.43326787659383   -2.98556463392756   -2.18111716319492
O           2.85160646330483   -2.33791646033186   -3.01588281602086
N           3.65300888240964   -4.35473028353797   -2.24847193398616
C           3.14255311952456   -5.18217101135784   -3.31316715057105
C           4.42381758372756   -4.85750099992102   -1.20367172826080
O           4.74493768961359   -6.01226304387109   -1.07115248327418
C           4.73421825206816   -3.68423892896779   -0.37491668832167
C           5.48327408685528   -3.41901412888269    0.75596809043473
C           6.19235740986554   -4.37269539258037    1.52169947068306
C           6.94843726733936   -4.06519381211990    2.60676417810905
C           7.68839295681960   -4.92020408597970    3.45917025102221
N           7.76229349637483   -6.29491793465214    3.49238017894187
C           7.12840187260070   -7.25940311760758    2.62438476993594
C           7.88984521279710   -7.43236789660948    1.31216298784328
C           8.61297267407262   -6.74503985736833    4.52027806827124
O           8.81969187103021   -7.92071691508965    4.74956821445427
C           9.09067170890058   -5.53869773268113    5.15764814232609
C           8.50009485358503   -4.44503564719376    4.49030154750480
C           8.96775737919553   -3.22413721820860    5.11544621756813
O           8.73744276827636   -2.05663498986031    4.88993514991142
N           9.83329938831899   -3.67410115453930    6.13351564915623
C          10.48106305063163   -2.74814256764929    7.03241452681705
C           9.75989065267971   -2.66278071137973    8.37470936745591
C           9.91330627153232   -5.04390227331262    6.17432531436971
C          10.71867796817770   -5.75690283085117    7.09389306046076
C          10.75901711319551   -7.11652823769283    7.11572561497959
C          11.55700538455392   -7.86355919839460    8.01362722865643
S          11.50207172006894   -9.61471713429123    7.93015553739703
C          12.43904528335309   -7.47761013148618    9.01159724316008
C          12.98652810731767   -6.24246851340806    9.59815774295357
O          12.75107294204391   -5.08257233544510    9.35135454231331
N          13.88689220176045   -6.66800901876962   10.56781534381467
C          14.66418201925797   -5.75909735641912   11.37387833935330
C          13.97825237826772   -8.05008680708692   10.68241567063633
O          14.69156633336019   -8.64175680618877   11.45498050380148
C          13.03501219314232   -8.56295691977426    9.68041264627758
C          12.65044651948675   -9.80828035386884    9.23183615346401
C          13.15797270720998  -11.04238109619871    9.70096836380482
C          12.87737312073321  -12.25813939945185    9.17412422574691
C          13.42305515101114  -13.48027752068147    9.64813328209751
C          14.57361114906009  -13.72137982972433   10.33413133334271
C          14.69588960305351  -15.04457021796489   11.03319544284778
O          13.97198728088490  -15.99879337143702   10.88319148885156
C          15.83315879407152  -14.87783151856386   11.94181610700348
C          16.44715480622288  -15.59667011392198   12.92373543103520
S          17.78724393398247  -14.69622012351316   13.59308240676989
C          17.50797553730076  -13.36517684496304   12.53010872317992
C          16.44421484070273  -13.60069824311781   11.71700938141696
C          15.75280325322581  -12.92445001024794   10.63290494864869
C          16.28657488670515  -11.87170972367973    9.93767318274570
C          17.50826801362496  -11.27832285667301   10.32232836190031
N          18.50009189849809  -10.78238161104381   10.61514272604216
C          15.75409839652820  -11.30878883982417    8.76396631913443
N          15.37883491422839  -10.82422436391835    7.79317780438629
Cl         16.05123758848537  -17.14265593944992   13.49091217244359
H           0.06879208582299    2.94904541739101   -3.35549199050434
H           4.58374494460280    0.73123695202227   -0.34638156162794
H           2.73056292455558   -4.52650677178491   -4.07803176051032
H           2.36228018718080   -5.84480114036286   -2.93534924401520
H           3.94956527125769   -5.78678192359082   -3.72742126424203
H           6.08545968599371   -5.38090459744099    1.15180223622452
H           7.03276560173830   -3.02081880142966    2.88785961262866
H           6.08938079007645   -6.97127082200843    2.45229605810400
H           7.14003719646318   -8.20629628464477    3.17285394856840
H           8.02233387055448   -6.48052570561996    0.80310899074206
H           7.34256454659078   -8.10356812679738    0.65667051635114
H           8.87140702363374   -7.85667707503384    1.50863894151082
H          10.45129720006271   -1.77466601919253    6.53526697399353
H          11.52278369784594   -3.04436632986474    7.17724983840556
H           8.72747115876685   -2.35491275360398    8.22681616575353
H          10.25500615409570   -1.93195255311320    9.00728311522224
H           9.77119112033386   -3.62425172684044    8.88229449413426
H          11.31966435504641   -5.19186285324078    7.79121756820949
H          10.15767589340596   -7.68690013018266    6.41922818510299
H          14.28188703615946   -4.75334909209990   11.20947610131541
H          15.71633131883205   -5.80567392733960   11.08830940297160
H          14.57211533251476   -6.03268400140971   12.42480988931292
H          13.81473721990852  -10.95213756294699   10.55725727553957
H          12.14518711846402  -12.32584614288838    8.37939952258275
H          12.81299507510944  -14.36546576407232    9.48888100691505
H          18.14069332089224  -12.50218217610525   12.59056196134951
