86
 SCF done       -176.978385289221          0.000947655889
C          10.48325644342401   -0.89629651119949    5.91903540959540
C          11.10412224578324   -0.29864150185724    6.97146028414370
S          12.34414486831309    0.77578633808220    6.43521726442115
C          12.02497216671621    0.41220705183596    4.75535842571720
Cl         12.90410404731059    1.14233590277340    3.50811095959843
C          11.00814865946657   -0.48944439279747    4.64965281702375
C          10.29689310328813   -1.17569516365628    3.56990987145982
O          10.53988735529361   -1.15186097766521    2.38498133285284
C           9.27971345769703   -2.02423600462510    4.26578091019968
C           9.40941073569463   -1.84479117461454    5.70211211682462
C           8.64224911013485   -2.39957761998684    6.69200772540172
C           8.88475305486031   -2.11602787538029    8.05264706031970
N           9.07376673323332   -1.90142514643097    9.16347717300317
C           7.55415924649014   -3.27199612576984    6.49163856555831
N           6.65376088083672   -3.97698546747705    6.39220617764956
C           8.50388643269111   -2.95615275141600    3.64335759763228
C           8.25479820847717   -3.04044270276636    2.25064158054358
O           7.94122658063428   -4.24033197915327    1.72588175522690
C           7.70759964062797   -4.08958154981467    0.40583077879454
C           7.82006232793884   -2.74659827336255    0.06647545446294
C           8.16863336536237   -2.06784599960450    1.24263579186197
C           8.26124935674798   -0.67344406053362    1.38988027192472
N           8.24724040688359    0.46846107619308    1.48636798489429
C           7.44376586392717   -5.24906155676907   -0.36958248341687
C           7.31416903479355   -5.24150962764716   -1.72080378712776
C           7.13670057695834   -6.42731571250574   -2.47670166870652
N           7.10395358397990   -6.45863564413932   -3.85141528653270
C           7.24216196193762   -5.33609281993563   -4.74728062713746
C           8.70019664906214   -4.91258102810206   -4.90866191375611
C           6.99302480143549   -7.77062028799012   -4.34805998691526
O           6.95702055431507   -8.03765700538918   -5.53058824339801
C           6.92906750001473   -8.59613796252583   -3.16125015464397
C           7.00801004965383   -7.74219598850279   -2.03234994775407
C           6.93363428610285   -8.56570702081080   -0.84630303282640
O           6.97074354945849   -8.29530463882106    0.33769667776644
N           6.81461225425823   -9.87555763858851   -1.34029833485679
C           6.65527926859213  -10.99600947096804   -0.44502734286605
C           5.20350655229070  -11.46384562726496   -0.37638471272017
C           6.82588719171408   -9.91175044106956   -2.71646629115817
C           6.81182197079268  -11.11942346289190   -3.46407875484584
C           6.94930272481007  -11.15586799968950   -4.81021492597373
C           7.03746342092070  -12.36431032606516   -5.58634764614052
C           6.66040655399657  -13.62709268476581   -5.11207578106041
C           6.82626991379273  -14.74678850383920   -5.89101136592853
F           6.45903415796490  -15.93719120836744   -5.38753929932002
C           7.34292863324465  -14.69951912666235   -7.19413986598984
C           7.71601046832643  -13.43922233428563   -7.67433370950909
C           7.56221695825531  -12.32057646172573   -6.89059124273219
F           7.97401344677764  -11.14615893183326   -7.38987341166319
C           7.55487457037542  -15.91331530059108   -7.93798624413911
C           7.57689831840592  -16.10172653266208   -9.27662860647270
C           8.22919577306249  -17.34186394551651   -9.82042107843050
O           8.54990594638684  -18.31668371453704   -9.18807156385560
C           8.42529180545327  -17.05179585853697  -11.24446918215718
C           9.02374250969365  -17.64875391284496  -12.31434365392332
S           8.84716434876374  -16.65965905398621  -13.74454467407011
C           7.95523877225465  -15.45876312504689  -12.88383640508027
C           7.81307152527702  -15.79728538330963  -11.57460800961450
C           7.16673126407134  -15.26094543663142  -10.39211549083041
C           6.19120435978648  -14.30170378519238  -10.40446550861882
C           5.84421744643783  -13.62593382076475  -11.59374431796744
N           5.56968472818627  -13.06500196160723  -12.55565174328972
C           5.39954242844464  -13.95525866972215   -9.29146825351227
N           4.70488878682810  -13.67262032056313   -8.42346647430185
Cl          9.84704333249467  -19.12778105633910  -12.36012575842791
H          10.92662064702876   -0.41456624193324    8.02225819036737
H           8.04415637963261   -3.74517109262273    4.22610896334325
H           7.66687154613960   -2.30272403902275   -0.89572110626696
H           7.38227290547626   -6.17917166876579    0.18039949853111
H           7.37848444502142   -4.30816679160566   -2.26044303705723
H           6.62926595008401   -4.50464377103295   -4.38866035543848
H           6.85146428622796   -5.67055721112455   -5.71243918695030
H           9.13374385786435   -4.62527630352330   -3.95309714210076
H           8.76499312053490   -4.06987436515054   -5.59120089701328
H           9.28030841391681   -5.73579029796098   -5.31795060498886
H           6.97273114940473  -10.64140977419047    0.53957506717092
H           7.31592014501294  -11.81164647795559   -0.75273554713381
H           4.57130442910272  -10.65783803252092   -0.01239867298679
H           5.11976118997406  -12.30506673318018    0.30599223505636
H           4.84231518022971  -11.76867197914188   -1.35620983230852
H           6.74345211478794  -12.03860500278127   -2.90093538093232
H           7.05200852078998  -10.22790938700245   -5.35822923467226
H           6.22298875339734  -13.74222799945580   -4.13390430950559
H           8.16655355765031  -13.33599468514891   -8.64924870500527
H           7.79215442862669  -16.79198394057516   -7.34471592941410
H           7.60964270842987  -14.58603390676586  -13.40157121892617
