99
 SCF done       -196.615618950307          0.000912097294
C          12.55499404315310    3.66086413020241   -1.02810507192389
C          12.23916950647494    4.96184392557979   -0.78832948584165
S          11.21974897609563    5.11151135548763    0.59615879070345
C          11.21857055938399    3.38423322299384    0.86482680923842
Cl         10.36667800848845    2.69076571330752    2.15336799942732
C          11.97058859008842    2.75524047227661   -0.08259760598112
C          12.35882574051611    1.38311728602489   -0.41151988771237
O          12.07913595117523    0.36247567749721    0.18627300785083
C          13.16943960840016    1.49725764192294   -1.64197454607890
C          13.34138249816877    2.90283254662968   -1.98077058740309
C          14.12148042918966    3.44774980620851   -2.96559624211525
C          14.17829994736182    4.84382455914649   -3.16469620640792
N          14.23283614455736    5.97646478384282   -3.33643183545590
C          14.96383699492506    2.72720391453545   -3.83526816896340
N          15.68880954543675    2.18690955868797   -4.54393887691328
C          13.61313798239447    0.46061652130273   -2.41077094724242
C          13.51106839467707   -0.93168860810401   -2.22420707668968
S          12.89079680750977   -1.73293271173272   -0.80580202974156
C          13.23924791687520   -3.27728603832671   -1.48812758501879
C          13.79462324771287   -3.18823299826155   -2.75208522150309
C          13.95044803520293   -1.86342930033519   -3.17083273533839
C          14.51693905118549   -1.48634624821221   -4.51618269899297
C          13.57754237962964   -0.62213550358808   -5.20363508838759
N          12.80243120121001    0.01741811375356   -5.74686410762758
C          14.78067426427827   -2.72134202512842   -5.39584090869197
C          15.35844293835536   -3.85961827683301   -4.56605963404153
C          14.29515385451288   -4.35129637169483   -3.57083270700676
C          14.86401210030596   -5.37257847184311   -2.71801034583837
N          15.34794988696802   -6.17006140543621   -2.05850739383765
C          12.92645674202788   -4.48085541983968   -0.73287990199294
C          13.29814030465601   -4.57513420495964    0.60076145931222
C          13.00875086596605   -5.72038313969293    1.33166561055420
N          13.52025328876318   -5.79467376668346    2.66936222883516
O          13.98835234884348   -4.78566911966761    3.15530733132704
O          13.49382089372851   -6.86593963869939    3.24928609298333
C          12.30025959883244   -6.78982576976885    0.76308264472987
C          11.93295828604865   -6.67640118291755   -0.57740602714303
C          12.24133469752006   -5.55380823564964   -1.31365716185488
C          11.92034791833400   -7.96253738655589    1.53917133456280
C          12.16158432915596   -9.21656594554541    1.17057331998211
C          11.84220581909934  -10.36737456165665    2.07256759081672
C          10.38851958707579  -10.33287836382185    2.55575017988388
O           9.41846448211813  -10.12953484130835    1.89074400794618
O          10.33922702974047  -10.56087689960389    3.87490217321853
C          11.62065730636330  -10.85446914903890    4.42129057890107
C          12.62847339260836  -10.30604383355492    3.39220230727776
C          13.99142049541758  -10.98688325229543    3.35320769793624
C          13.93777327943723  -12.50209716047699    3.46361268739942
C          13.10415213434545  -12.99089097198723    4.63982527078897
C          11.69926759793192  -12.37033780235640    4.71057781931277
O          11.27116399889328  -12.61519319874549    6.04595285596317
C          12.30144892316713  -12.85887143990380    6.86506946418956
O          12.18312770896917  -13.06267721554808    8.03319417063743
C          13.62627509313477  -12.80690786407903    6.07370620215545
C          14.28258649855819  -11.52261775142966    6.45978789377727
C          15.28022774441181  -11.46351266090762    7.34698583150630
C          15.81145832889517  -10.23812097691452    7.88637468719260
C          16.14853163346027   -9.09579918874752    7.25015231314072
C          16.27951087034730   -7.82109125836559    8.03810170777010
O          16.34638281839884   -7.72891076965062    9.23850545022865
C          16.25436315884299   -6.76485277788951    7.02181719354673
C          16.23084757036569   -5.40115996253572    6.98548960276038
S          16.21813522751140   -4.82701310692576    5.33562404102903
C          16.27158059640186   -6.42949619888032    4.71201735606747
C          16.27401620381082   -7.35109409066046    5.71317005183682
C          16.33338119081091   -8.79110520336852    5.83941669710543
C          16.70322643958425   -9.64673302987189    4.83741043619580
C          16.90897715982348   -9.18893250226238    3.51820354217270
N          17.04914901692769   -8.84256607668713    2.43369051509542
C          16.95082845225934  -11.02369245650451    4.99957100091606
N          17.17797545602917  -12.14732290308593    5.05929725451817
Cl         16.21449749957420   -4.32473023590512    8.29359971413558
H          12.52812616621724    5.84240761664349   -1.32712752948939
H          14.10998233774636    0.74203754992066   -3.32984362772360
H          15.45145319086085   -0.92616811666163   -4.37445888617086
H          15.46924555717801   -2.44816145921770   -6.19623958299558
H          13.84438398925799   -3.04629285824840   -5.85780029036733
H          16.23977407154483   -3.51716982633558   -4.01866818770334
H          15.66059882685612   -4.68280875091551   -5.21516319112489
H          13.46461898502723   -4.80358842173937   -4.13066521222692
H          13.84211367510153   -3.77362195431842    1.07794537617516
H          11.37641667325875   -7.48398786544684   -1.02644805741133
H          11.91934846671805   -5.48842329100775   -2.34147712433905
H          11.43512826743976   -7.76331993849679    2.48643643358507
H          12.67153180104059   -9.42979566062799    0.24305290386226
H          12.00305208406729  -11.31710744939197    1.55508994759811
H          11.67365730505623  -10.32466593245050    5.37809881159821
H          12.79684707344806   -9.24812670232146    3.62040041600645
H          14.59601334911838  -10.59855557776788    4.16918326178261
H          14.49204810496293  -10.70246718577291    2.42590488641842
H          14.95352166664585  -12.88815069556245    3.56372796821982
H          13.51010363074211  -12.92580045897341    2.55207796894545
H          12.96490840415918  -14.07188322166673    4.51546053478126
H          10.98909932790279  -12.87765157590265    4.04912216711133
H          14.26598928793004  -13.63552595174679    6.38163312540898
H          13.82902434832863  -10.60611556482471    6.11043417961282
H          15.65542866502376  -12.37591064884566    7.79213090574304
H          15.88912805860001  -10.20559839020830    8.96994042134321
H          16.28559009320267   -6.58641742279645    3.65206754264992
