80
 SCF done       -172.034602655684          0.000811236010
C           4.39358657013110    3.35363722210075    0.75766150820517
C           4.31546642858614    4.68597037471025    1.02537496521151
S           3.84899582211157    5.57669613375968   -0.37599899180187
C           3.75498505498015    4.12471975212920   -1.34711770451757
Cl          3.32109021098461    4.18312333068508   -2.98247781997494
C           4.07477718466252    3.03120810023304   -0.60021878321397
C           4.16475950591805    1.57881984414862   -0.81323259048436
O           3.88775250820446    0.96742514359897   -1.81287224609090
C           4.57957306207723    1.03403155076814    0.52410816872864
C           4.71859979194982    2.13402799646727    1.46792083431868
C           5.12871097680921    2.08242738965590    2.77426623864663
C           5.22815796323897    3.25282277312238    3.55693854494482
N           5.31074785232343    4.19166847231842    4.21095908435105
C           5.50301092763718    0.92392756161590    3.48392288922694
N           5.82990142776346    0.02539986707169    4.11982125209261
C           4.67907289232421   -0.28404269315045    0.85152513605199
C           4.66339358824957   -1.38896981621070   -0.02956020494812
N           4.89205217783874   -1.39858321986699   -1.30585280259890
C           4.80608409336739   -2.61655848357105   -1.81454430518681
C           4.49341017166128   -3.65381247465062   -0.89394118868865
S           4.33281038696347   -3.01158501957843    0.68117030649192
N           4.38927774039683   -4.87305350077525   -1.40017743581998
C           4.61104710242522   -4.85887075414507   -2.69126947372891
S           4.98819894872482   -3.26403566801905   -3.39246556262281
C           4.55201170151581   -5.98537981876194   -3.54438760357870
N           4.21172670113009   -7.26224140565721   -3.17990871528386
C           3.93271606245706   -7.74040891007759   -1.84658899541393
C           5.21609820331709   -7.97519062386278   -1.05679696937856
C           4.21158201340149   -8.13310280392072   -4.28729250253659
O           3.92761532485258   -9.31076896540190   -4.21507295194913
C           4.58803314889945   -7.29572552956893   -5.40832667295263
C           4.78910226940623   -5.98750811009856   -4.91533505464303
C           5.16611853579720   -5.13438040778129   -6.01821885488742
O           5.43358841139787   -3.95179421627130   -6.06522815236840
N           5.17813568050294   -5.99703436360611   -7.12761897932228
C           5.46767087955854   -5.50661561011779   -8.45417049961560
C           4.19439573665859   -5.27187238349139   -9.26268053696591
C           4.82453890187836   -7.28275451919067   -6.78556001404333
C           4.72901678976651   -8.34582661633683   -7.71278230740033
C           4.33774396786985   -9.60012343904983   -7.35852079097791
C           4.21269069949499  -10.63797845752359   -8.30929061618695
N           4.45651966314445  -10.51816563010359   -9.58895338381778
C           4.22683236179806  -11.65736635281127  -10.22486371908861
C           3.77504166319487  -12.74260781396757   -9.43117760596132
S           3.65687883557826  -12.25262524768867   -7.79464414584510
N           3.54622956464180  -13.88024970909776  -10.06894917091890
C           3.79362427008681  -13.76746938468041  -11.34554663318540
S           4.34341245473809  -12.14835271785194  -11.85922556319921
C           3.60203812120689  -14.76967094993445  -12.32176531996298
C           3.30570404059624  -16.08151740927822  -12.12788291642936
C           2.72581309169286  -16.86154587102977  -13.27151007216912
O           2.72902200769834  -16.53754202907148  -14.43340906018619
C           2.12630499199156  -18.03796676220597  -12.63459180777593
C           1.36978454464278  -19.10621945076688  -13.01689191978308
S           1.01062588998334  -20.12413870019351  -11.64309149042661
C           1.89749420137143  -19.10167969516523  -10.57063460171649
C           2.42798547395260  -18.03939173675399  -11.23170323817615
C           3.27852789742413  -16.90165778558553  -10.93023846193649
C           4.05388165272096  -16.78537302677702   -9.81028427697084
C           3.93310303457640  -17.69658071242289   -8.73999804616805
N           3.83296171387348  -18.42382113849150   -7.85848609774616
C           5.10546662897101  -15.86015732898609   -9.65186434778730
N           6.03342027144198  -15.20139788078145   -9.50258002008775
Cl          0.80675882802134  -19.48503922471423  -14.56824729270217
H           4.49272302556852    5.20777546003548    1.94473894549548
H           4.76573574219152   -0.55439696514155    1.89645900687214
H           3.39090519228652   -8.68195150431402   -1.96883106625126
H           3.30424814399441   -7.01108832855675   -1.33296524950425
H           5.85582181484355   -8.68287422222984   -1.57861524276829
H           4.97285749126968   -8.37915895938299   -0.07871227683744
H           5.75246414761944   -7.03965118071651   -0.92310508307437
H           6.13029447937510   -6.20944680123902   -8.96580072625093
H           5.99478294714103   -4.55839854028928   -8.31677244027735
H           3.63109559308061   -6.19473717826357   -9.38083232588198
H           4.45051017385915   -4.88973878661616  -10.24672475417069
H           3.56470865280289   -4.54197178794316   -8.75996621494851
H           4.96477203471395   -8.15727152881690   -8.74965819484839
H           4.09596616873656   -9.83844632190631   -6.33180133902872
H           3.61075409353218  -14.43304744217684  -13.35252229217817
H           1.95502167825227  -19.35294705531837   -9.53019115531885
