72
 SCF done       -156.583447902766          0.000858511063
C           1.33541218048561  -10.18256820978141    0.66691971597268
C           0.82874085315642  -11.39889630834486    0.32468995193229
S          -0.84255790558669  -11.51638091660180    0.73359404702566
C          -0.86238903839579   -9.89568988379972    1.38933041447748
Cl         -2.27394172864888   -9.22374040090978    2.04093141352702
C           0.36678202936255   -9.31949597596111    1.27450554871954
C           0.99070778947210   -8.04275013570066    1.63730491965299
O           0.51455721835603   -7.14737697135586    2.29399040708968
C           2.39628429583794   -8.15096825654165    1.12597757205904
C           2.60637564833210   -9.49234244471848    0.59097779985544
C           3.75432037911939  -10.02591166822654    0.07308123133157
C           3.78882657538939  -11.34372931634388   -0.43238672873339
N           3.83409056633314  -12.41224858579485   -0.84676384006127
C           5.00016964108696   -9.37261650140510   -0.01484831654178
N           6.04049023316759   -8.89760754354441   -0.11352687153201
C           3.32242450959245   -7.17039200264638    1.23400844048982
C           3.03013831440007   -5.80752715601084    1.60550664325263
C           1.91243761056408   -5.12145658327477    1.06863937322608
N           1.06121163122521   -5.55425433981645    0.13969438944782
S          -0.02528680330161   -4.41043242429126   -0.14246975211011
N           0.53558178576657   -3.29552600874496    0.86808885453982
C           1.61175400752926   -3.78054714970442    1.48433372664162
C           2.42632228717023   -3.12252477757155    2.43524018900768
C           3.54213708565664   -3.80337093772348    2.89624775454283
C           3.84435748288632   -5.09759160632174    2.47415721201474
C           2.10602982588580   -1.80682950178495    2.90582763439730
S           0.76444332860605   -0.86915881963363    2.28399890004745
C           1.26833460639997    0.35750887418164    3.44205593694655
N           2.30709265056946   -0.00760151301471    4.13834719939834
N           2.76837934032806   -1.19004831951279    3.84171292993580
C           0.61815626635595    1.61318516425507    3.62994682887720
C          -0.39122032425898    2.06487158957522    2.86630498810685
C          -1.06964191852182    3.32981158412075    3.04043903442038
C          -1.85534057735794    3.83499004762484    2.00660658387075
C          -2.50324007867774    5.05507336241340    2.12337329677539
N          -3.23271198281476    5.49988058712255    0.96584196002376
O          -3.61375788770825    4.65166912801051    0.18937853808925
O          -3.42477862193185    6.69257027918484    0.81906789604757
C          -2.42249335294461    5.82120098016999    3.30277755805210
C          -1.65436755297081    5.28186803640921    4.34301199121299
C          -0.98824816585705    4.08605401990353    4.21819316405010
C          -3.11335310342523    7.08116997085437    3.45796487812990
C          -2.73787343841426    8.06351534442894    4.29651608109673
C          -3.43528857554874    9.31085730857905    4.40298208463827
C          -3.99902926445282   10.04259900280201    3.41555027223308
C          -4.97205472445234   11.12516993776913    3.78534961672639
O          -5.16615719453416   11.55911170523992    4.89477047702613
C          -5.63528059278945   11.46528273208314    2.52449492513608
C          -6.66039509434936   12.26627789014060    2.11523328290141
S          -6.88803610299962   12.13434919404189    0.38851246539982
C          -5.58903562133233   11.00732568930365    0.23741401787183
C          -5.02190534796415   10.74698407452605    1.44496848243163
C          -3.91832869002716    9.95699105143082    1.96084216780109
C          -2.91221299718025    9.45187337072615    1.18807597409300
C          -2.94201831496685    9.56312562889921   -0.21980226773998
N          -2.94389115585639    9.66547274642555   -1.36165442520163
C          -1.73191726977632    8.84853627140639    1.66344576224184
N          -0.73124509146301    8.39150556850124    1.99063183672294
Cl         -7.63490846744185   13.28007894208507    3.05976628803883
H           1.31672561974293  -12.23445132245691   -0.13666479799378
H           4.36407496921636   -7.39253108630580    1.03814476048757
H           4.17944206259166   -3.30572786662693    3.61004147571989
H           4.71761455795010   -5.58626068162271    2.88040288243880
H           1.02646078585451    2.19766602775087    4.44158581232362
H          -0.72691652186808    1.46187196006575    2.03176318172211
H          -1.95001929946696    3.29202126833154    1.07722116335965
H          -1.60309025280497    5.81501869093152    5.27890906523081
H          -0.41305751693785    3.71520962862116    5.05163718371856
H          -3.98085996687508    7.25066120730108    2.83487841034202
H          -1.89686048175395    7.93162000108181    4.96368595102712
H          -3.56305101455877    9.71024913022653    5.40539901753418
H          -5.34420409713743   10.61031721944375   -0.72751456224837
