97
 SCF done       -194.827986087299          0.000409809185
C           1.79164545890564    1.94528251127559    0.24502447046386
C           0.83862164024745    2.91309669820206    0.15731588658901
S          -0.59193797360752    2.31281884635861   -0.59605467279271
C           0.10303493047651    0.72259514920114   -0.80075062348278
Cl         -0.76532018459950   -0.53387860471464   -1.53132005891270
C           1.37314894846230    0.69021159789701   -0.30441863115489
C           2.44536668912021   -0.30090720345320   -0.18044592819822
O           2.42796641547888   -1.45778270063052   -0.52828835198791
C           3.54564863095648    0.42418433910998    0.54090029587548
C           3.14426132315805    1.81558142703463    0.74190900845796
C           3.89927164763692    2.83997927094460    1.24053109018595
C           3.37786599095269    4.14749204443457    1.35358347329276
N           2.96456747778650    5.21240030990560    1.45401954253328
C           5.24144416149534    2.73905063312341    1.66149433371502
N           6.33618502376011    2.72231289737313    2.00527392619925
C           4.63346524856860   -0.16380494592318    1.08849410752869
C           5.07572333333730   -1.52495239099912    0.87243680968814
C           5.57116134567063   -2.25467937456408    1.94992151818811
C           5.98077573540575   -3.56839997744216    1.78861476745757
N           6.50539258845861   -4.23483297211023    2.95120513789436
O           6.21516520885012   -3.77784525015901    4.03563811305155
O           7.21319232810671   -5.20889187296398    2.78552011598101
C           5.94028156543306   -4.20167054044856    0.53088653360459
C           5.49801723854493   -3.42847269150212   -0.55087391446454
C           5.07474369398420   -2.12967003134052   -0.39188238920566
C           6.28794519023470   -5.59314283781978    0.34640912718118
C           6.89734893231197   -6.04808104387747   -0.76790461274206
C           7.31488386357121   -7.37087242390909   -1.09378027189160
N           7.08161715235427   -8.56244190517591   -0.45896075470563
C           6.34634173246055   -8.82320442392935    0.75597624906911
C           7.20251774195666   -8.61312845058841    2.00331684530854
C           7.71248014751893   -9.64521015986427   -1.12773821244350
O           7.65885480061822  -10.78646260646954   -0.73397449031273
C           8.34998551772963   -9.03310965936633   -2.27501597616201
C           8.08997430252677   -7.64682862663912   -2.21882412362774
C           8.75042199048532   -7.02268174369526   -3.34061260974799
O           8.78913527745646   -5.87260931022781   -3.72362480349196
N           9.41549545987051   -8.08783073914853   -3.99161733200548
C          10.08381747730255   -7.83928617057305   -5.24825346083441
C           9.38616471544803   -8.51551608581363   -6.42384192939940
C           9.17365274804499   -9.29247883714351   -3.36770226094041
C           9.65504032815641  -10.58892583136104   -3.69449595601125
C          10.76330199146988  -10.90437945301395   -4.41012178513274
C          11.17834846610421  -12.23518858667886   -4.66954812835044
S          12.77886258626130  -12.50201829489908   -5.33220894552692
C          10.54778968327022  -13.45378232411644   -4.50125072036534
C           9.23099331781903  -13.96644637619710   -4.07400075101976
O           8.24743532967365  -13.37891469965042   -3.70207476384668
N           9.33065116933094  -15.34869537159060   -4.18808961355175
C           8.23007612830315  -16.24090394630881   -3.88841694859959
C           7.38333555102018  -16.50662494954011   -5.12785751461479
C          10.55625183292216  -15.79237987724458   -4.66374736737655
O          10.86774964788576  -16.94255129635313   -4.83218456732668
C          11.33767714951947  -14.55712917646579   -4.87441198963845
C          12.58124247503762  -14.24610790310839   -5.37731648489995
C          13.59424998405688  -15.15956290258327   -5.76197444483269
C          14.68589991846665  -14.94765645006768   -6.54013664589498
C          15.86098949929521  -15.87477781040194   -6.42702472971798
O          15.87637478794053  -16.95641550140906   -5.89682106261369
C          16.96474811449725  -15.12556472979975   -7.04158210441276
C          18.30849627501326  -15.28212235192339   -7.20903477699190
S          18.98056665002048  -13.91840121717343   -8.07268776357059
C          17.43604790418568  -13.15937796405608   -8.20844947629498
C          16.46892831872169  -13.90788100452868   -7.61561822448057
C          15.03115885808181  -13.85809635186508   -7.43573696109845
C          14.17469970046795  -13.09505949834541   -8.18361665069508
C          14.65207371232861  -12.11129583458695   -9.07352923144239
N          15.02847359580364  -11.29256615850032   -9.78341090848920
C          12.77670552005641  -13.27033560189266   -8.20637698530711
N          11.64081446972477  -13.41626075703256   -8.28277328105842
Cl         19.28263406696295  -16.56918007691893   -6.69774094302923
H           0.87309051159260    3.93298614745199    0.48563123064574
H           5.22652913134532    0.40293813731102    1.79640862711555
H           5.62812278431856   -1.81385089787959    2.93484049577318
H           5.45989221824449   -3.88233166976495   -1.52851199838234
H           4.75786964561170   -1.56457869157033   -1.25288664590723
H           6.07182191017210   -6.25512823834809    1.16847944571073
H           7.19323527828486   -5.33628883893523   -1.52934780498209
H           6.05093803049919   -9.87601087832024    0.70273590455016
H           5.44297289448612   -8.20931719045291    0.77360272377297
H           8.05738565127806   -9.28403492161706    1.97416433439191
H           6.61618960543390   -8.84107621244918    2.88925936961488
H           7.56724904649126   -7.59174970786936    2.08130559820224
H          11.13312413102128   -8.14018778839541   -5.18722056166567
H          10.05152499259674   -6.75248490477127   -5.37664010379362
H           9.38376927565521   -9.59726779685214   -6.31491307577946
H           9.89934026823542   -8.26030581436286   -7.34678431272654
H           8.35683593756202   -8.17217220332227   -6.49289364023497
H           9.06788671472988  -11.38713982914557   -3.25666018967315
H          11.42721213438474  -10.13887472038931   -4.78353959375134
H           7.62961363503170  -15.76511783756798   -3.10962271095798
H           8.65830324316464  -17.17312779260640   -3.51269234690817
H           6.96724088445405  -15.57565511415025   -5.50584597978732
H           6.56745450745744  -17.17849014035424   -4.87747694860696
H           7.98917880788484  -16.96571149165033   -5.90562179999561
H          13.51193951331092  -16.14521902747226   -5.31171120882811
H          17.35355669929198  -12.21280242062966   -8.70477502740764
