82
 SCF done       -164.351325587792          0.000537984449
C           6.12864196949460   -0.66182337899671    5.31869955759753
C           6.55442817369251   -0.30281602606957    6.56047488584141
S           8.16930172880338   -0.83857770065859    6.84505465671314
C           8.27878519410826   -1.56275391852847    5.25852084030730
Cl          9.68352925998491   -2.35625600925427    4.74484387073337
C           7.11375997592636   -1.38449923163686    4.57263217658154
C           6.58855216737338   -1.73837465306770    3.25099273059675
O           7.16676533473850   -2.32564704340931    2.36651560223294
C           5.21132859692637   -1.15070375307723    3.22016084626114
C           4.93508766357827   -0.52380550542334    4.51026190859337
C           3.77073448579294    0.05088361775546    4.94139613570289
C           3.66432654141198    0.59998233227783    6.23825106112817
N           3.56199939321970    1.05503092751546    7.28600027614734
C           2.57100588732709    0.16308694960765    4.20877898120142
N           1.56149057593114    0.28617312690519    3.67634605381741
C           4.38592870246439   -1.06171387224621    2.14263159298017
C           4.49070364129765   -1.68167451629792    0.86767213652659
S           3.56505994813920   -0.99369845492817   -0.43825465086204
C           4.12085749384937   -2.20413343484926   -1.53514658152292
C           3.58632858618098   -2.26493545674737   -2.87900806160659
O           3.86829548858646   -3.10604028777038   -3.69716757230089
C           4.97233376590377   -3.10989397375187   -0.90484140435706
C           5.15744790890691   -2.81693390323556    0.45293972045977
C           5.53861063080166   -4.30175050600277   -1.51042818663271
N           6.38250663020084   -4.34488809588930   -2.58246757957728
C           6.98658024921298   -3.21904019873263   -3.25000239758850
C           7.96011775077185   -2.47759215801756   -2.33832608868443
C           6.72242353660904   -5.67235055385523   -2.91451973734487
O           7.49373464315983   -5.95800280165983   -3.81257855646183
C           5.99869632837830   -6.47994956021101   -1.96175291958956
C           5.30583858848248   -5.59037530014549   -1.08674346554029
C           4.54225792177065   -6.37829640926677   -0.14683546950979
O           3.82357760322198   -6.07324717053873    0.78094026799337
N           4.80927623504986   -7.70887188365972   -0.52772021984927
C           4.25053322626568   -8.82047887445994    0.20176627793943
C           5.27862688402127   -9.47321710280614    1.12276369678601
C           5.66616714808478   -7.77909563543549   -1.60282230663236
C           6.06007447487558   -9.00126016252469   -2.22367852212429
C           6.95637381079356   -9.00944168331597   -3.23128702045720
C           7.38369352486144  -10.14820158115386   -4.00450746893201
C           8.28346794249926   -9.93447790834216   -5.05054291700154
C           8.65976950514365  -10.98674094319438   -5.88062194288558
C           8.13560950784276  -12.25304678109561   -5.57889471904234
N           7.31811079660883  -12.47486738050867   -4.57163237708914
C           6.94546739291315  -11.46600923444459   -3.81059134171210
C           9.57582563571448  -10.81452594311362   -6.98288210784682
C           9.76026219365774   -9.73364294231432   -7.77064786289616
C          11.00264189025476   -9.67238141519583   -8.61435336483267
O          11.74178919587438  -10.59242867743572   -8.86337938938820
C          11.11692371200976   -8.26076621736382   -8.99145173679836
C          12.01381406576321   -7.46765819447452   -9.64375438300963
S          11.44722506811487   -5.81547728287640   -9.69216192086460
C           9.99990582314877   -6.21758676326680   -8.84233661895599
C           9.96251446755842   -7.54176392167624   -8.53590995258892
C           9.04331210188323   -8.46911591291051   -7.90283581702956
C           7.71579572854608   -8.21674696219241   -7.69797260652586
C           7.16672563141276   -6.94174276809466   -7.95847081419250
N           6.71714168517593   -5.90975807919460   -8.17653555414579
C           6.76059369213412   -9.17647744302256   -7.30811590684279
N           5.93269308416270   -9.92586821908766   -7.04463703044222
Cl         13.49062943336204   -7.91553972250866  -10.34199001154118
H           6.03865287567863    0.24058691348946    7.32702691070179
H           3.52219289318408   -0.41372656315743    2.23764219992913
H           2.85947274763927   -1.46040889858803   -3.09710167866200
H           5.75854219620086   -3.42369878134694    1.10290109332397
H           6.20737857703493   -2.54694839965393   -3.61522506187278
H           7.51732302475978   -3.63625664770621   -4.11016111936693
H           7.45095405565004   -2.07945128860117   -1.46283976014306
H           8.41432083463094   -1.65326133325603   -2.88109471134910
H           8.74735091505443   -3.14864718698730   -2.00255520304004
H           3.83694428354497   -9.55099277732122   -0.49961490420860
H           3.43313967966875   -8.40606243367434    0.79877266068572
H           6.12465072754990   -9.85542083222635    0.55554119010878
H           4.81856749599608  -10.29572381620814    1.66343953777876
H           5.64579095828042   -8.74615156889547    1.84293231290910
H           5.60041150026682   -9.91359497280151   -1.87444466827840
H           7.38873871564316   -8.06565225187112   -3.53720507891975
H           8.70140216482563   -8.94745510400299   -5.19307855677330
H           8.37828769856727  -13.11141845372531   -6.19036846127625
H           6.27478893333632  -11.72387596058758   -3.00307211456057
H          10.24350216699823  -11.64768123494552   -7.18121823355195
H           9.28720733170904   -5.44846185194721   -8.62027304430108
