108
 SCF done       -208.935074482112          0.001919613784
C           4.51427521153556    2.84998541395056    2.27489441419532
C           4.17045333094856    3.70880260896172    3.27336938053984
S           4.46043559905770    3.01022171727922    4.82383984884699
C           5.06017118773959    1.52821549494724    4.11732824573029
Cl          5.58497984909516    0.23811577304748    5.08038586276501
C           5.02192561158374    1.59995830644601    2.75631832909559
C           5.37009722259270    0.72774104865550    1.63041915371971
O           5.87068755968892   -0.37032231860909    1.67039865168760
C           5.05365731764448    1.54416538614887    0.41004267121613
C           4.51286287148838    2.83443548014012    0.82749059196429
C           4.03723156027919    3.84249158540147    0.03446863871376
C           3.52230449198817    5.03368343536809    0.59043305427696
N           3.10471876092456    6.00902931636800    1.02646258177661
C           3.98670981346709    3.82779939622787   -1.37449073425956
N           3.91224161881274    3.87683545532429   -2.51933782517343
C           5.39102297584196    1.20084402546595   -0.85559180877365
C           5.86016703307824   -0.09297725416452   -1.29446737023886
C           5.30253290417708   -1.28437235609971   -0.83028732522981
C           5.76843416170087   -2.50578234982293   -1.28264953883763
N           4.99182044188749   -3.65976011775685   -0.89877647925138
O           4.48132827078155   -3.65339495691113    0.19913128184562
O           4.84956987064267   -4.54562446959411   -1.71771726818348
C           6.86665581818331   -2.59560623103611   -2.16161093810911
C           7.36210238692082   -1.38623297194927   -2.67371811057124
C           6.86048083043070   -0.17074885017836   -2.27438842715988
C           7.54317939386390   -3.80868568472623   -2.53855469014128
C           7.63289873302697   -4.93806525262543   -1.80327560754186
C           8.36719558599232   -6.06922985358954   -2.25879839317664
N           8.33900532369211   -7.29247141970510   -1.63423665886818
C           7.47010222709272   -7.67406770408617   -0.54685701253648
C           6.01758937049048   -7.80195330438533   -0.99936991615921
C           9.17270720117831   -8.23200236497915   -2.27519753461456
O           9.29874260101188   -9.38270006863253   -1.91232906226104
C           9.76709668791788   -7.48585467560569   -3.36080048879444
C           9.23926617874857   -6.16836207030190   -3.33698659410460
C           9.85726287964133   -5.43946897554324   -4.41757291337075
O           9.73186192336273   -4.29169763756581   -4.80189566362707
N          10.71489501797251   -6.37311972952202   -5.03881442064933
C          11.59174703554551   -5.93634643685235   -6.10008455083208
C          13.04953922496292   -5.86201654957717   -5.65416465120146
C          10.66989166659068   -7.59342885662555   -4.40723175259603
C          11.39971032710456   -8.79382433146200   -4.68635839984713
C          12.09664271687645   -9.13620401909790   -5.77561827222963
C          12.87362031113070  -10.39917100625359   -5.85834018670974
C          14.38678689678437  -10.10136654318388   -5.84421404702262
O          14.93839880052273   -9.26293957705863   -5.19894988560165
O          15.01493294169778  -10.93006550966719   -6.68200889721047
C          14.11375016469846  -11.85249089797488   -7.28744967870893
C          12.73531952243939  -11.18739153027802   -7.16318227752055
C          11.57362172268704  -12.16541160099883   -7.24743872042168
C          11.71781610873044  -13.32281878378917   -6.26948441127448
C          13.01408520642551  -14.10452747249410   -6.45508616484836
C          14.27581471612251  -13.22372786307720   -6.59211323817426
O          15.19328915070279  -13.99717634246897   -7.35606992906514
C          14.58567739822328  -14.94951165937728   -8.06539723758223
O          15.15229538914754  -15.62977773776391   -8.86888919661610
C          13.10794920680926  -15.04724985829821   -7.67542939958154
C          12.16899313583452  -14.82342200788723   -8.81709813404406
C          12.52252369062746  -14.61981601289469  -10.09339547632696
C          11.56947213353135  -14.59735900440544  -11.15882104632063
C          11.81483235974929  -14.29644461318955  -12.45712163083985
C          10.87269884896014  -14.75613549022177  -13.52956418258843
O           9.73815497360891  -15.13431661287487  -13.37497335102814
C          11.67260751901285  -14.68862328422091  -14.75959976581400
C          11.52515066817899  -15.03016256319188  -16.07123174081096
S          12.97171830683354  -14.64003224856926  -16.97315439249665
C          13.75432559481994  -14.00692927266639  -15.57182908646264
C          12.95196310390803  -14.10151377107603  -14.47838070835828
C          12.99386192684827  -13.72163209593577  -13.08176139981910
C          13.85494302608721  -12.81028876659070  -12.53182008743740
C          14.94175510292614  -12.28487901959171  -13.26242943159179
N          15.83195773757523  -11.86375351004545  -13.84916961747186
C          13.65079747431945  -12.22923856080618  -11.26811674953706
N          13.45467548214837  -11.68986394117736  -10.27339750201232
Cl         10.18083746643003  -15.73297632436381  -16.82410104738938
H           3.77216786963616    4.70194933654714    3.20949483598953
H           5.35186050797248    1.96025002102270   -1.62750813334010
H           4.46045974672974   -1.27402468495057   -0.15537416551067
H           8.17212695267414   -1.42957896698870   -3.38580565974114
H           7.26480064531874    0.74110618836933   -2.68809127730499
H           8.08831359978775   -3.76052831892935   -3.47232765021879
H           7.16841776872688   -5.01752949624732   -0.83114503396345
H           7.55980274759796   -6.95139390051806    0.26970612444617
H           7.83838445104505   -8.64281977777090   -0.19742433174576
H           5.63799935522484   -6.85931145233125   -1.38822492578042
H           5.39854959548548   -8.10626704687937   -0.16014306222224
H           5.93723606070126   -8.55325331125730   -1.78125514632070
H          11.23998385512069   -4.93509449630896   -6.36936092992169
H          11.47356879940501   -6.58350929820330   -6.97324642313718
H          13.14453958230996   -5.17536666897754   -4.81604812801023
H          13.66139208934404   -5.49357556997654   -6.47323983778818
H          13.42830662228697   -6.83447907884462   -5.34797809901583
H          11.32434622627737   -9.50410448253754   -3.87119855060190
H          12.17085549062901   -8.49545339548242   -6.63984601340350
H          12.66725599697390  -11.02378748019974   -4.98333072541999
H          14.41094712363729  -11.96039632544109   -8.33527693126586
H          12.64520261205618  -10.47590396104926   -7.99062107279131
H          11.53040187119853  -12.54280762761422   -8.27040313453625
H          10.64411840111314  -11.63164849955912   -7.04292337155439
H          10.87208582494441  -14.00401545722571   -6.37283867618936
H          11.69096738531413  -12.94113269854687   -5.24703757640341
H          13.15837943275556  -14.72414313437555   -5.56307980481412
H          14.74732889651256  -13.04813311080431   -5.61884983450546
H          12.92707408913980  -16.08114237138857   -7.35296359615803
H          11.11908305565776  -14.91464282526355   -8.56662743704817
H          13.56707303022117  -14.54184971153730  -10.35790150756888
H          10.57264622715444  -14.96381806933644  -10.93847638827436
H          14.75216725577633  -13.62249424159908  -15.65004529715618
