98
 SCF done       -212.669580291514          0.000944836230
C          12.35022974562227   -0.55229622587648    4.82539979368462
C          13.50739810938214   -0.67963585026633    5.53062964475798
S          13.32775271377000   -0.08158706216166    7.13824149358214
C          11.65916900061639    0.35113753511268    6.86533041102885
Cl         10.71302023007451    1.05098675799926    8.07993130925312
C          11.28918422837345    0.03950935936109    5.58817706371620
C          10.08258295418183    0.14154497075926    4.77590944551275
O           9.00535885445664    0.60604219803952    5.07361313120418
C          10.47298531922455   -0.43226546602464    3.44183028936222
C          11.86702979844757   -0.86872808304809    3.49858984043356
C          12.58414711637737   -1.49585441592846    2.52168454951696
C          13.93261027067655   -1.86642186398357    2.72345128350937
N          15.02777025448052   -2.17044820554892    2.87351503958265
C          12.08704380003126   -1.86040288312052    1.25233302694155
N          11.73861822641001   -2.19492686422984    0.21194598384796
C           9.65392246918181   -0.44960879415502    2.37573400408004
C           8.26476517922681   -0.02443515738009    2.43575331816112
C           7.76195394919262    0.99791423871677    1.62536118602481
C           8.62161592800720    1.75091813200217    0.69033493517176
O           9.80008108392804    1.61581879908342    0.53577003396206
S           7.62004111635124    2.94125557038735   -0.18203021162383
C           6.10870298436616    2.46565734205151    0.69091687123307
O           5.04257464832992    2.92438564116743    0.42065439751724
C           6.43928739184408    1.42753964463598    1.68572815545037
C           5.49898614751735    0.88423782836556    2.58742070641348
C           6.00663069434601   -0.16190446804504    3.38457637098186
C           7.32711890971645   -0.58976775891385    3.30136568692186
C           7.51908728645838   -1.66904829147290    4.30351117549655
O           8.47187326463580   -2.34686956268718    4.52970174049825
O           6.33494966017327   -1.79925488535523    4.97564039558057
C           5.38581060971636   -0.92868060804382    4.49424933090129
O           4.28980056801276   -0.87825820379805    4.96008952954207
C           4.18349006059087    1.44672052101596    2.71101083474695
C           3.04878253240732    0.75401000479803    2.95189273350904
C           1.79948981841918    1.41179904176444    3.12689313146598
N           0.60417037512681    0.76051215156785    3.29109479563434
C           0.39969903551050   -0.66646350269170    3.36706850154410
C           0.79556151205934   -1.22768895230024    4.73060335385946
C          -0.47159135694708    1.66179519360914    3.44899961670772
O          -1.62130465455354    1.31694458098158    3.60696790229348
C           0.15241962608386    2.96606237630433    3.36535913870411
C           1.54026351906956    2.78042742838257    3.17021794473330
C           2.14893684730061    4.09139461905629    3.11620904040842
O           3.30490418791634    4.44614107127327    3.00939005432428
N           1.07201426247745    4.99130509467824    3.25770826697911
C           1.32497128673239    6.41137594926095    3.20771028029199
C           1.07743612936526    6.97864256709739    1.81187448396735
C          -0.12465366942318    4.33092599482023    3.40644196263310
C          -1.43545235899438    4.84445013389288    3.60568823003603
C          -1.88446043830073    6.11976569628739    3.56484985671048
C          -3.24834892986911    6.44832666092850    3.82158320058092
O          -4.15267778069049    5.47656785077089    4.15456351088695
C          -5.31272338289743    6.13472850528871    4.34273441588703
C          -5.06143350485858    7.52304488125869    4.10737425432745
N          -3.74078448826003    7.65087299431716    3.78431937321740
C          -6.05485266301851    8.48028722343427    4.22309106102874
C          -7.29547534265573    7.98103407972914    4.58845803585740
C          -7.51936637715121    6.58985255126447    4.82349386903012
C          -6.54127146785712    5.62140933083092    4.70552527264049
O          -8.81239831218725    6.44268411670498    5.17001921781546
C          -9.33490788831652    7.70266344570649    5.12301533207051
N          -8.47936608560047    8.62537054916883    4.79180471180232
C         -10.69086025645837    7.88858489020136    5.51983949551608
C         -11.42447345129566    9.01993412444593    5.42468618818841
C         -12.66245879289551    9.15910250431244    6.26761768228417
O         -13.25115927103546    8.26833917757891    6.82662728390145
C         -12.91920056450941   10.60164276067052    6.28602309914159
C         -13.78519329597269   11.45485448498946    6.90518584377463
S         -13.46810726200384   13.10340855238354    6.42357875188659
C         -12.17751913020816   12.62148306800930    5.38305813452326
C         -11.99894284528185   11.27425611724183    5.41365286350003
C         -11.15577290536142   10.28863712717544    4.76282079381607
C         -10.43382051529014   10.50456923742978    3.62491615421660
C         -10.30210150318705   11.79922436558293    3.07816499104762
N         -10.18226836208523   12.85089278341425    2.63639027893704
C          -9.86538821359831    9.49106498952427    2.82449082962434
N          -9.47927628888456    8.71579062713374    2.07177204439272
Cl        -15.02105565512519   11.07522624823483    7.99837060582463
H          14.45181102909298   -1.08068296370257    5.21971417654143
H          10.01611059227415   -0.75440059361154    1.40223850539327
H           4.12322696289044    2.52057848860629    2.57405254450382
H           3.05749909175209   -0.32389560228973    2.99274591048532
H           0.95687150709843   -1.15844804808644    2.56494454037018
H          -0.66983474020944   -0.82436296537395    3.20045976770969
H           1.84945756852990   -1.06010118578661    4.93821815324275
H           0.59956333247388   -2.29611863172282    4.75466984767792
H           0.20757310476749   -0.75105297680524    5.51101271144897
H           2.38201007133959    6.53581607182444    3.46231155257164
H           0.72115266208170    6.91706411445184    3.96393506759573
H           1.76244582560627    6.51883062550647    1.10370053896889
H           1.24927951932556    8.05127849169546    1.81416999836072
H           0.05937450951242    6.78566930920819    1.48160657435666
H          -2.15839614195315    4.06265291552993    3.80813405767911
H          -1.27279429433618    6.97476066136093    3.33329873021326
H          -5.87982857905452    9.52527339120152    4.04094193063993
H          -6.71809947484082    4.57449737819373    4.87944823431652
H         -11.14238784264316    7.04834975848725    6.03437511848044
H         -11.63821939588314   13.36572517664692    4.83149468276265
