92
 SCF done       -195.919009477552          0.000904882579
C          11.94655818989301   -1.51196118528022    0.33222704000696
C          12.96400604904949   -2.39267893355544    0.13156305444574
S          12.63520394854862   -3.90941085595633    0.88599595990227
C          11.09440729863542   -3.35409339782854    1.48767054141141
Cl         10.08997522434279   -4.35366884545703    2.41120114830407
C          10.87303810705290   -2.06038092349683    1.10917266537672
C           9.83125008875650   -1.05952528691947    1.30584327935416
O           8.78609606808477   -1.17152219723333    1.90802078442496
C          10.31940277401122    0.14995533740031    0.55775461049065
C          11.63948759187485   -0.13645238590001    0.00130710935677
C          12.47292958515891    0.72538630781060   -0.65110068342169
C          13.73674082737410    0.30477432941281   -1.12232268106642
N          14.76165965450685   -0.02942828622380   -1.51236102297558
C          12.20850872046957    2.08932795494089   -0.89976130696220
N          12.06356422191654    3.20714520411540   -1.11125112394217
C           9.58748842544965    1.26480562376842    0.36399494301977
C           8.28430580280038    1.49256875009332    0.95591870687942
C           7.98189203147222    1.33217820129750    2.31889893643135
C           9.03171269852704    1.10537032995597    3.34313255873224
O          10.21685056203504    1.10047655582907    3.19440946459502
S           8.25599394657368    0.91841465913416    4.93602818766037
C           6.61303533616051    1.26338805600805    4.29332506109060
O           5.66204062341551    1.33326974607345    5.01146095696320
C           6.68953514831739    1.44783502046533    2.82695317551363
C           5.58407056450765    1.79247447545235    2.01154438698170
C           5.91991579486676    2.04920454481043    0.67339964993810
C           7.20415055911585    1.89301871642480    0.16996677987632
C           7.14838697111198    2.15728055214215   -1.28891334318406
O           8.01814073897038    2.10349351285477   -2.10142730287867
O           5.85131070332066    2.47676973868420   -1.58758246014563
C           5.04424164358280    2.40557981674641   -0.46737625681539
O           3.86876235027805    2.58106472346316   -0.51366696375356
C           4.22103651366341    1.94396244099670    2.44472660070703
C           3.56285674466402    1.10251675510070    3.27048630471148
C           2.22477997298671    1.34511862896527    3.68504678098981
N           1.47714098304441    0.45720973395917    4.41915048672513
C           1.87016822440200   -0.87095747979717    4.82294150279027
C           1.78535366423897   -1.86338799948539    3.66604277845498
C           0.20496449797314    0.96769154838167    4.72482624124279
O          -0.63210699866882    0.35205969251299    5.35542862714960
C           0.19779778007482    2.28877939358688    4.13362559740433
C           1.44844462306339    2.48411745485126    3.49616059405820
C           1.46167634507631    3.82029890616049    2.93858418985035
O           2.30687849651217    4.43920603782603    2.32754080794684
N           0.20154483520896    4.34800225524556    3.27724142858895
C          -0.19434293143973    5.66557460319030    2.84118399836342
C          -1.12627450862058    5.60596045699678    1.63347967806272
C          -0.55729424307936    3.45250415565327    3.99068939498639
C          -1.85388740008629    3.74290267896678    4.49528969063511
C          -2.56979661199253    2.83513792996152    5.19928624480194
C          -3.86519606542250    3.05685068836847    5.77299385496117
C          -4.44006841567839    2.08016568465644    6.60703824895742
N          -5.59580463667621    2.24177802150162    7.20383149291164
C          -6.25604053871177    3.38192182406492    6.97404903046426
N          -5.83757154543624    4.34442641014775    6.15008974518063
C          -4.66667210708019    4.19500291840348    5.57817744311385
C          -7.55205838751174    3.57434589460200    7.58162412981648
C          -8.07637631910933    2.93674308490782    8.64848676240563
C          -9.56391272409931    2.98836123073471    8.87345320660155
O         -10.33867672023590    3.75953814825394    8.36699755175163
C          -9.82671622747165    1.86758319285774    9.78149057964381
C         -10.91780538770018    1.25597239415497   10.32541562086640
S         -10.42737038193273   -0.07249774266469   11.34865282456033
C          -8.75446344999441    0.22193774306606   11.04199547710085
C          -8.58796751933936    1.27282242471509   10.19545816869867
C          -7.48755067625641    2.01759042533199    9.61463550395249
C          -6.20085066510741    1.99117433061015   10.06890845234070
C          -5.79092588560668    1.07219220035383   11.05869991433065
N          -5.44727639163425    0.31841277737230   11.85174523918179
C          -5.19748622772173    2.90821967705763    9.69307601294164
N          -4.36030777449472    3.66620944696265    9.48983692809042
Cl        -12.55089661424494    1.64554112216337   10.10541266802262
H          13.88278793490807   -2.25938574327562   -0.40453039621355
H           9.92284388542617    2.02531591125884   -0.32981532265356
H           3.68927041677234    2.77942779469782    2.00375563320953
H           4.03848573301745    0.20173905157112    3.62864861052882
H           1.17230023264726   -1.16560950982472    5.61161906808427
H           2.88033448908506   -0.84010966353703    5.24012211144938
H           0.76589050330916   -1.91089457034755    3.29088385262397
H           2.07501216019849   -2.85282729490160    4.00853626597791
H           2.44092316213556   -1.56908264915232    2.84916975978575
H           0.72969455060456    6.18108680868825    2.56520982507469
H          -0.66119831386839    6.20317669738056    3.67127942565869
H          -0.62734568736075    5.10952647926490    0.80492899254287
H          -1.39251244860748    6.61296536206642    1.32482791001987
H          -2.03680043191806    5.05811725165035    1.86683049982519
H          -2.24636516875980    4.73268066396935    4.31432209896693
H          -2.14351560679004    1.85623327288422    5.37880414073447
H          -3.92680579241775    1.14586839557314    6.79857426553430
H          -4.36413543761378    5.00405247354133    4.92594493273113
H          -8.19744344705095    4.27375510777481    7.06257165116089
H          -8.01570830958254   -0.40628478898441   11.49877101560030
