90
 SCF done       -178.791872216670          0.000969259419
C           3.14694221792833    1.64697175984517   -5.33488371379400
C           2.49541221005549    2.46158566848670   -6.20857573831996
S           1.81366373871705    3.82504215358651   -5.40031712083550
C           2.41515185065645    3.28753740172653   -3.84846437553216
Cl          2.12610204024786    4.17346738934326   -2.43486273574057
C           3.10117505857267    2.11842490687073   -3.98493598690606
C           3.81830648491866    1.19127482046918   -3.10288337635701
O           3.95805685167839    1.29383486702037   -1.90556402932363
C           4.34797006391530    0.13205920626718   -4.01163748915716
C           3.88840364215542    0.40259366647161   -5.36992735510998
C           4.05370706471869   -0.35751886689396   -6.49794638225333
C           3.52895070879490    0.05831237241560   -7.74068623323479
N           3.11552404859443    0.37801806528985   -8.76205097884042
C           4.70446604434756   -1.60409252002649   -6.59049894604191
N           5.20565240634918   -2.62569256934912   -6.74693009060896
C           5.20257201760447   -0.89004042811954   -3.70927949009388
C           5.73597400123908   -1.34025095738301   -2.48011884527004
S           6.95141285659087   -2.60269531608682   -2.57520136190670
C           7.10335995005472   -2.67236296451867   -0.85647422682878
C           6.25149857363788   -1.74036597006660   -0.24318595054579
C           5.48144315571515   -1.01672357706918   -1.15978832178027
C           6.25282603806151   -1.42211603596680    1.18534193606033
O           5.31986061482246   -0.98159444063174    1.80350211101107
C           7.97501666093658   -3.61982737373409   -0.26708475538046
C           7.86225363118246   -4.08653964025846    1.00611049349761
C           8.80780298427067   -4.97588381539436    1.57186162559668
N           8.72329078228436   -5.47489503728466    2.85121632183910
C           7.63932356651165   -5.28019648438796    3.78377358504295
C           6.43530923903952   -6.15498095954856    3.44452788271785
C           9.82696269483500   -6.28934492841159    3.17516125748327
O           9.97309737533794   -6.83633465127163    4.24753971607340
C          10.63829828275667   -6.26812228162666    1.97861867380797
C           9.98943387042604   -5.46666018862568    1.01397112886984
C          10.81667992707740   -5.46399440304403   -0.17098649806391
O          10.67448990011867   -4.94024425454450   -1.25861215695661
N          11.92581200451546   -6.26602139104965    0.16249130484859
C          12.97797595595425   -6.45595899661879   -0.80716421884694
C          14.14573220889331   -5.49929429899331   -0.57605425066525
C          11.84028571188921   -6.74089825011100    1.45260251939197
C          12.73415909168563   -7.53617901949686    2.21083090349186
C          13.96239936273413   -8.01859359238071    1.89190694811206
C          14.76860978916950   -8.76628626962280    2.79162023351821
S          16.35491784458365   -9.28445015042206    2.28088048749009
C          16.67633984683152  -10.01969916358194    3.81265204472040
C          15.58413490228689   -9.86355553652345    4.67917224736604
C          14.52299211523525   -9.16033372509813    4.09115537009573
C          15.54792146550456  -10.32467800594709    6.06074582981087
O          16.43776357324436  -10.88241762491205    6.65796592461710
C          17.91056776639564  -10.62227820250684    4.13718141719060
C          19.00609352585004  -10.65845750267502    3.33667366350001
C          20.24360341434061  -11.23439027623764    3.72113414523974
C          20.75999874024442  -11.43587438534197    4.96546537909969
C          21.89061293766689  -12.41262376354894    5.09929168141366
O          22.53214000657817  -12.88936661770587    4.19415742827038
C          21.98497481024375  -12.67172871033874    6.53878308158024
C          22.68955856353742  -13.49314996558966    7.36716565624561
S          22.22422008470178  -13.22927138011051    9.03138012448418
C          21.09534239398920  -12.00043836875608    8.58791867609268
C          21.07433267075822  -11.81601451819851    7.24142957864447
C          20.40087445783759  -10.95121702307573    6.28838626667340
C          19.76020897185595   -9.79299777234160    6.64125115256620
C          19.59006129586651   -9.42712525473451    7.99355198777492
N          19.44645244918586   -9.10619699404851    9.08529758890167
C          19.26788811167561   -8.82450446560354    5.74845898078032
N          18.86763047671626   -7.98822307607131    5.07094493581101
Cl         23.86356342680870  -14.64130195868400    6.95148162278435
H           2.36942677113132    2.36326641665476   -7.26835805357377
H           5.55853130037109   -1.46944685054227   -4.55374342460153
H           4.78219196822989   -0.25703721178037   -0.85913314081882
H           7.23712602628920   -1.58650066278532    1.67088462468421
H           8.76059542288686   -4.01098155183707   -0.90217049749836
H           7.02072062922780   -3.79217938821549    1.61628050483782
H           7.35756944757369   -4.22389999614031    3.80798332563418
H           8.03250016338929   -5.56156747831177    4.76468252888103
H           6.05079909134082   -5.92451403200546    2.45325008901914
H           5.64588028795925   -5.99041511626207    4.17222291281013
H           6.71936587590417   -7.20405942130997    3.47056253258352
H          12.52759944422270   -6.24138910100232   -1.78130826988910
H          13.29985422090848   -7.49973254884605   -0.79673779581128
H          13.80916473076367   -4.47357430932899   -0.70438229718007
H          14.93352062083136   -5.69800082532888   -1.29749657080705
H          14.55134433985102   -5.60404073662990    0.42771827633884
H          12.34218461015459   -7.74368103714652    3.19793079666599
H          14.40806119083070   -7.83654079396395    0.92708076597806
H          13.60837286711970   -8.93997755454783    4.61130731284827
H          14.58501340820859  -10.10624212826509    6.55811450960575
H          17.94435797226521  -11.08296025029157    5.11542706627968
H          18.93351264820151  -10.28330821154390    2.32326667573449
H          20.86275732968367  -11.62262212423474    2.91703330765549
H          20.51967110208153  -11.51469344046738    9.35036753604217
