97
 SCF done       -195.155423679249          0.000389568502
C           3.21653564175226    2.94999834399416   -5.25285814795463
C           2.94836700711006    4.24532551031133   -5.57109058017857
S           4.27523194693910    4.97129077505217   -6.40169622258649
C           5.21650046974432    3.50037546019205   -6.31885632017859
Cl          6.77366653430804    3.41010383833655   -6.97917884411731
C           4.51427584267141    2.52121277985100   -5.68170556328010
C           4.73541532833194    1.12492536027110   -5.29198188678985
O           5.74150822219485    0.46792669391295   -5.42767526336144
C           3.47137662676248    0.71962013830018   -4.60088767548785
C           2.54861198633027    1.84598754989069   -4.59401054186087
C           1.26285815646240    1.87863638085064   -4.12497365470605
C           0.48286416234690    3.05183279535874   -4.20869228951705
N          -0.16117435442797    3.99921121098189   -4.26755357561184
C           0.56960585502992    0.79456178552530   -3.54970552086466
N          -0.05481643543450   -0.05261602156287   -3.09156343967047
C           3.29306494383332   -0.46205316778168   -3.94960975349548
C           4.11355158732413   -1.62175884844362   -4.04056034012987
C           4.27910820823724   -2.54717682493321   -3.03517762422904
C           5.17260562597459   -3.57190001422690   -3.48187230748237
C           5.50272096060017   -3.23632073011482   -4.87604865232530
C           4.87089083819215   -2.07684692694366   -5.19862015484839
C           6.29654335832536   -3.98627521184479   -5.75101259354373
N           6.93843234513646   -4.59314224488690   -6.48598882286688
C           5.62773059643751   -4.65522240464384   -2.77235619332727
C           6.51267948456954   -5.67547827175749   -3.22915898454644
C           6.71004092903737   -6.59934692138790   -2.23263128737801
C           5.93304187324526   -6.16484904804691   -1.07346514097284
C           5.28461223078172   -5.01361234412023   -1.38026118555870
C           4.44839942040755   -4.30268028618729   -0.51253834054951
N           3.77182558825910   -3.73905584109951    0.22502310031856
C           7.51593834744280   -7.78954914966329   -2.29930912277775
C           7.78607228033186   -8.55636343722280   -1.15404355372314
C           8.53871027306372   -9.71270447443697   -1.20374881810402
C           9.04116071749892  -10.14913015107668   -2.42635181753802
C           8.80683421280124   -9.34561288999078   -3.57135311848245
C           8.05822538430312   -8.19705316165418   -3.53153726043002
N           9.44707189745252   -9.89894383849646   -4.65850541771113
C           9.42540098794485   -9.36969949827395   -5.99536791193977
C          10.14538217808044  -11.02053357133511   -4.29868907938768
O          10.77771811821472  -11.69238147042638   -5.08445973493479
C           9.88262795701985  -11.24862498188784   -2.83340409816644
C          10.30314150549906  -12.34662492684188   -2.13354297775921
C           9.66891382406287  -12.83956483132384   -0.86039015545816
O           8.75802943065771  -12.36482022471748   -0.21662275922979
N          10.26473235928712  -14.03432572941410   -0.55572319736114
C           9.90803438355588  -14.83447986292818    0.58416704200814
C          11.25645980411326  -14.33787796441448   -1.46311686241865
C          11.31228913599720  -13.32854144910323   -2.45659943059670
C          12.30533685119884  -13.40494128496033   -3.42816774803950
C          13.16593837400526  -14.48551831553828   -3.43011287351397
C          13.06792267890964  -15.49975438439863   -2.47291850129853
C          12.10371638987851  -15.41957685992307   -1.45773501603364
C          13.94553583005944  -16.63879160235110   -2.50010763165546
S          15.18656434213800  -16.87853716044883   -3.71666854117609
C          15.54653816083915  -18.37686542619681   -2.86581749574062
N          14.77409608082451  -18.55808669577172   -1.83287926922697
N          13.90288234679537  -17.61240883930835   -1.63617079756788
C          16.56954785508083  -19.26632952608283   -3.29456860322036
C          16.92415034782287  -20.35544371860279   -2.57447478739402
C          17.91748215752972  -21.27409786508765   -3.00013359969334
C          18.48463864315982  -22.25753002898250   -2.25263521485973
C          19.18719084455727  -23.39776023318154   -2.92237622006793
O          19.54368250431959  -23.44537776536423   -4.07417022074331
C          19.27543435555446  -24.42736556378343   -1.87921498240872
C          19.69406078289633  -25.72084682277715   -1.78190063540875
S          19.47572464960702  -26.31480424221435   -0.15230337634977
C          18.83168812496492  -24.80443868118224    0.38105578001616
C          18.78188598261109  -23.90535218450550   -0.63700380606061
C          18.41117631614881  -22.51522832931317   -0.82596893429839
C          18.24110093503359  -21.60320535547709    0.18085461288740
C          18.22744505000519  -22.00376350310760    1.53378993215268
N          18.19762234113399  -22.32851443504574    2.63354179923633
C          18.19806295852542  -20.20508069301408   -0.00232916526582
N          18.23327286959212  -19.06189149813971   -0.09258999400177
Cl         20.34683587262556  -26.70279344448952   -2.99765767289492
H           2.06963908572327    4.82677311407783   -5.37417232597215
H           2.46119166624010   -0.54772387182504   -3.26003816842855
H           3.84965461712689   -2.49371206588277   -2.05337651038437
H           4.88458939724330   -1.59827780124326   -6.15800972797521
H           6.94900972193185   -5.68117133242058   -4.20685067999404
H           5.87017502927048   -6.68209946322159   -0.13472177684709
H           7.40523745533969   -8.23480674103994   -0.19830807251369
H           8.71225597476288  -10.27721319052325   -0.30471924177254
H           7.88206651563329   -7.62423071074968   -4.42630959545809
H           9.84572107408804   -8.36251054979783   -6.01706194257678
H           8.40403595578353   -9.34161095621565   -6.37868475057777
H          10.02831373462681  -10.02936338916880   -6.61807001285081
H           9.09104334508953  -14.32800891478656    1.09666301499745
H          10.75726848110328  -14.93697187990619    1.26226139457737
H           9.57979054588670  -15.82531006308558    0.26594595602281
H          12.39631495938520  -12.64740772357346   -4.18588847021947
H          13.92906367061807  -14.55251285843151   -4.19128743787274
H          12.05409908019353  -16.19474075027523   -0.71156917904921
H          17.08374032490645  -19.01626518648521   -4.21194790871299
H          16.39986706283781  -20.54092236151658   -1.64793711939416
H          18.20740802754408  -21.24972979959973   -4.04537254866991
H          18.52827285092416  -24.69148094629713    1.40297414740499
