65
 SCF done       -140.001631924977          0.000564811135
C           9.93671656328076   -7.86259691912725    0.28635818928780
C          10.70009574131099   -8.98613012675438    0.37127951178594
S           9.88416254565555  -10.34825718807957   -0.30644789589396
C           8.47847295959628   -9.39616912528147   -0.71312227574874
Cl          7.13525089680151  -10.07129683602814   -1.49852004975019
C           8.66571640363443   -8.09745368559842   -0.33010499941058
C           7.89998263675612   -6.86070597089538   -0.38242899731149
O           6.75656172650887   -6.72887439482486   -0.77611051415341
C           8.79533615026994   -5.81489778017411    0.20063432991409
C          10.03755423045639   -6.46086082830391    0.63600831841290
C          11.12370946324091   -5.89288587895874    1.24095389846569
C          12.25188077992654   -6.66822031534535    1.59149143700997
N          13.17446132909928   -7.28154068405558    1.88718799985823
C          11.27802952449752   -4.53563834172393    1.59147537548353
N          11.47582816172244   -3.44903621795189    1.90447681025409
C           8.50389771342954   -4.50347688794818    0.38634316026275
C           7.31851276568461   -3.78557604450980   -0.01649859204307
C           6.61133313388048   -4.03885118264850   -1.18915749102710
C           5.42455478801717   -3.35036949038148   -1.44633455923568
C           5.07358203070478   -2.32517507751453   -0.55725508827930
N           5.76582364865717   -2.04468097320819    0.52675625240375
C           6.83363086923034   -2.75687535140961    0.81174343560361
C           4.59912387794020   -3.71104628061116   -2.56905232332257
S           3.52622668780397   -2.59711532528180   -3.36228684824621
C           2.89673433154874   -3.79913615572244   -4.46306181301039
C           3.50287750707355   -5.02728290724498   -4.21233365435088
C           4.46047166811433   -4.95695101959373   -3.14766176089656
N           4.98511268177208   -6.19333795702655   -2.95221410234207
C           4.39756801888455   -7.04780494638655   -3.85884868502741
C           4.73991049386157   -8.40700724590885   -3.89450273772454
N           5.02632955063242   -9.51808684989710   -3.91409906413040
C           3.49814514339471   -6.37169618914209   -4.65792879486333
C           1.90333620728863   -3.44498538897470   -5.41967354826485
C           1.59428067890239   -2.10598447368593   -5.73091316713727
N           0.68842708594985   -1.77012423822925   -6.61115032953493
C           0.05665332089968   -2.75224898036890   -7.26283473449582
N           0.24634059882304   -4.05384442657703   -7.02067559364332
C           1.12868140786541   -4.39193154573448   -6.11531511528881
C          -0.94629703530481   -2.34501519465358   -8.21119684739874
C          -1.61530310565490   -3.10051548074909   -9.11066723311464
C          -2.89556484461563   -2.57024544013190   -9.69314055468188
O          -3.27493450523105   -1.42632397764787   -9.67324401160609
C          -3.57178984254818   -3.76236137990029  -10.21732700262896
C          -4.77884945381516   -4.06430519349296  -10.77452926963288
S          -4.87075588189316   -5.76863750641732  -11.14978561401996
C          -3.27278480198318   -6.05105724136662  -10.56008670824441
C          -2.71051618100317   -4.90345863689936  -10.09658145796518
C          -1.43800645767630   -4.47901013081369   -9.54384152352969
C          -0.27574854422316   -5.19025327956209   -9.63201169088453
C          -0.26060519022973   -6.51571453210877  -10.11470381576505
N          -0.24137823821216   -7.60136007365587  -10.48495241438052
C           1.00901751831347   -4.67567639857721   -9.36067502226312
N           2.08988893164265   -4.30483966291414   -9.25148268340864
Cl         -6.07072476535741   -3.01847593972777  -11.09942313650163
H          11.68199834688567   -9.11260672433138    0.78238234759965
H           9.20980797202776   -3.90841963190312    0.95276010328748
H           7.00523902993875   -4.71967311391751   -1.92534710406093
H           4.20106155067695   -1.71198825799674   -0.74037562108254
H           7.33112772595825   -2.51449152979822    1.74073497572468
H           5.59340248685877   -6.47769913166025   -2.19491254704513
H           2.93385312411655   -6.80470310568086   -5.45856612783838
H           2.10990600765140   -1.29106435937235   -5.23625082856122
H           1.22065665457634   -5.45044344150820   -5.91836030744534
H          -1.25203375346356   -1.30884531849095   -8.12231655822364
H          -2.86793007066174   -7.04312208550236  -10.58913533003833
