80
 SCF done       -197.735427450424          0.000528454994
C           1.22952979993851    0.58536310659695    3.63628122836694
C           0.53763865997777    1.19479327934431    4.63704411909671
S           1.28228374498585    0.91529213105015    6.16831191660352
C           2.55814470826923   -0.04127074673287    5.45421678560491
Cl          3.78644752908277   -0.72284775608874    6.39457724092246
C           2.38636837795804   -0.12215125229015    4.10115850086263
C           3.08854872624444   -0.73379516289894    2.97711618450831
O           4.11595015857812   -1.37673054623780    3.00511278777434
C           2.23813115203788   -0.41668778883076    1.78027578732959
C           1.13527707898083    0.44506805433340    2.19932120577696
C           0.20136528534432    1.05422678601361    1.40833900265879
C          -0.80393222902425    1.87775511380078    1.96086772225020
N          -1.62821207700961    2.54563458565006    2.39595450268697
C           0.13195892000785    0.95784567170825    0.00339885137575
N           0.03083443988568    0.91914308569808   -1.13913170729747
C           2.37407064400040   -0.99686844935572    0.56404817127971
C           3.45641792517678   -1.87527226262642    0.21025388355940
C           3.24554912825660   -3.05532771787323   -0.51728192982909
N           4.18643560851294   -3.95429643393102   -0.70380756082645
C           5.36159302906789   -3.72354263601814   -0.12462208247401
N           5.71147895498922   -2.57046650261464    0.43404919518811
C           4.79726235327033   -1.64198493510469    0.56314893804702
C           6.35270022075732   -4.80235461206741   -0.12046636637600
C           6.31112585408941   -5.71856823078787   -1.26888581484748
C           6.21547567178404   -7.10130625863438   -1.10969252575916
C           6.19001995139630   -7.95644820227346   -2.20226473073409
C           6.23190894498318   -7.43572817779608   -3.49400371492014
C           6.29377562097676   -6.05867451821537   -3.67671263997893
C           6.32896168721887   -5.21761813158309   -2.56815099937908
F           6.41791143079240   -3.90122749445567   -2.76643511446520
F           6.32971334876892   -5.55076232105678   -4.90921770237056
F           6.21759333669373   -8.25476416337363   -4.54483919153921
F           6.13683459698032   -9.27972899783337   -2.02182716305508
F           6.15439312697523   -7.62834726431182    0.11467722977264
C           7.22896849313294   -4.91133572364418    0.90393891838964
C           7.08873187714059   -4.08530143395067    2.11807292805404
C           5.92807185860364   -4.14543269771646    2.88888773898642
C           5.79986834016362   -3.43119806642129    4.07218615552936
C           6.84603403279254   -2.61887069497831    4.49794948686495
C           8.01249110537801   -2.54062091000949    3.74407815297850
C           8.13031113472744   -3.28279609469527    2.57431190464641
F           9.25485657186107   -3.19546404838777    1.86266126042861
F           9.01604636457823   -1.76147809419513    4.15331565719702
F           6.73334840772792   -1.92242439066900    5.63020429496592
F           4.69394590410810   -3.53571300612031    4.80908054163541
F           4.91053439545600   -4.91570745465537    2.48949785311551
C           8.33331562177558   -5.87540699540733    0.92238145436441
N           8.88343245636922   -6.13338313512914    2.10612508209535
C           9.86395614597103   -7.01893504545662    2.12978324760183
C          10.28662149159869   -7.69531466350346    0.99564510254820
C           9.64356194540494   -7.35873748996721   -0.20205179222147
N           8.69783174161723   -6.42157653046129   -0.22776221383700
C           9.94141105838302   -7.98556027695670   -1.47684638825782
C          10.38122316943377   -9.25135924250115   -1.60223269662787
C          10.66069303068579   -9.83796194501454   -2.86960160684878
C          11.23445380024331  -11.03757953967462   -3.13321573283021
C          11.14652138255570  -11.56969902890879   -4.53717217628409
O          10.83585653889008  -10.93944113090579   -5.51641169377859
C          11.47543523553599  -12.99105231250097   -4.40981378642007
C          11.50736374703704  -14.08746274361843   -5.21989365344242
S          12.00642573478979  -15.49807088163767   -4.31674568480482
C          12.17630198737179  -14.58802131876922   -2.86141208915551
C          11.86058199337866  -13.27924612972816   -3.05877735747886
C          11.83897761818078  -12.05226612077892   -2.28247822240633
C          12.44657194926192  -11.91295883794795   -1.06356839439442
C          13.02758468034231  -13.02139142001645   -0.40688921125340
N          13.49356098917447  -13.90797757768023    0.15121873115002
C          12.65068444574837  -10.71325422249468   -0.35507547844917
N          12.87885849910373   -9.77804090927480    0.27100115361349
Cl         11.13600162578864  -14.17904329160057   -6.86865161226913
H          -0.35679668623902    1.78341380720465    4.58435459908701
H           1.59980113106566   -0.86602206690620   -0.18152761847968
H           2.27394834195361   -3.29176117234285   -0.93096537899831
H           5.13717989910690   -0.67612793010623    0.90708697043985
H          10.31438781195114   -7.19488855547755    3.09761251639282
H          11.09333732022369   -8.40949281679616    1.02502900371072
H           9.75224661853037   -7.37600124417912   -2.35005546557767
H          10.49755294952553   -9.86253587787592   -0.72030429788300
H          10.33560137825833   -9.28523159706876   -3.74553818993305
H          12.48654015154944  -15.08649039299537   -1.96454602198136
