90
 SCF done       -179.048673658450          0.000575193646
C           2.84421463125496    3.24865880338703   -4.85471740496734
C           2.34911799959097    4.37763204143868   -5.43006088347805
S           3.20799180954757    4.76984332718410   -6.87461734655804
C           4.25842748157561    3.38254033039549   -6.70465351886383
Cl          5.47820498809131    3.05428314040200   -7.83288022434100
C           3.93861636001152    2.67833926774566   -5.58231664711866
C           4.40466180477271    1.45986025410644   -4.91266918419004
O           5.25719495460170    0.68723407809295   -5.28424862205146
C           3.52375392303217    1.32841937951468   -3.71017147337323
C           2.58089905653672    2.43589516368547   -3.68438286012620
C           1.65008290594153    2.72674451506175   -2.72291152579381
C           0.81483522299517    3.85894013335164   -2.83097996235204
N           0.12784200587093    4.77442600265587   -2.90746823112399
C           1.43036626914858    1.98678568958020   -1.54374622702684
N           1.21620071082706    1.43801826680028   -0.55863471962287
C           3.51988932199945    0.24894911896844   -2.87963076974702
C           4.50712124428275   -0.77151767543185   -2.81168156462169
C           4.26577897450550   -2.07786998828718   -2.44721406587037
C           5.48530624820897   -2.81778572126382   -2.52956333909137
C           6.52823609901916   -1.84455819357731   -2.88582682116367
C           5.93930944101001   -0.63142514766135   -3.05339307635524
C           7.91080036625815   -2.07205757741280   -2.92713069796686
N           9.05138618067468   -2.20225119819488   -2.92144441337348
C           5.65916781914369   -4.16885725978929   -2.33105454113601
C           6.84867987546137   -4.92078828189346   -2.52539775246181
C           6.62471999935824   -6.23584202417332   -2.16055432867658
C           5.23643126534227   -6.34340677222851   -1.72982272447110
C           4.64642764390336   -5.12584165491737   -1.85044032052471
C           3.30607035488330   -4.85800127332099   -1.54903999747160
N           2.20030128406329   -4.67825138806742   -1.29565923679864
C           7.61699476666234   -7.24674053058933   -2.24752454420123
N           7.63181450166392   -8.47214194989039   -1.62668463503860
C           6.71042309549000   -8.99157332562005   -0.64272785763989
C           6.72812342226692   -8.18100977762956    0.64913625025322
C           8.80469601472356   -9.20077810524417   -1.93079438777424
O           9.04885525902487  -10.29973611984799   -1.48376057772989
C           9.52911826159651   -8.34094882644864   -2.83787211355715
C           8.78991413207057   -7.15462719343240   -3.00763570108549
C           9.50702421982195   -6.33172479197003   -3.96018180331179
O           9.26288053019726   -5.25872507139038   -4.46135329409610
N          10.67695792037260   -7.07610882528622   -4.26335366053590
C          11.59829039260471   -6.56015613839805   -5.24795527238159
C          11.50336171681125   -7.31336441014792   -6.57186258265691
C          10.69539044348973   -8.27731094828895   -3.60467681627724
C          11.66042213565534   -9.32159116880062   -3.59810895330772
C          12.90289073005952   -9.34881959304235   -4.13187868099032
C          13.79758564450982  -10.46748635045808   -4.02766469481428
C          13.41572163847715  -11.77949734621595   -3.69055550179659
N          14.27620875240114  -12.76286910193769   -3.60033602773228
C          15.55415158500136  -12.51147992898478   -3.89359210878602
N          16.02296708336135  -11.30826768272921   -4.23896662895202
C          15.17032286809807  -10.31428664770594   -4.28791451184978
C          16.46721247998600  -13.61926711273406   -3.75399696868032
C          17.75414848808652  -13.70888786991132   -4.15072919080452
C          18.62401617495978  -14.78248669601904   -3.55047530581335
O          18.24676342145971  -15.76392183714957   -2.96296240459353
C          19.99078011301194  -14.31470294788215   -3.79933308132278
C          21.25587833037809  -14.69999354495908   -3.46491620817879
S          22.42976635581256  -13.59983363597279   -4.14582420434684
C          21.20004511283630  -12.63954127223182   -4.88421008040432
C          19.96246368983274  -13.13384648075739   -4.61419332913552
C          18.58724300039751  -12.83155917922070   -4.96278264432012
C          18.20355884498926  -12.03135241110998   -5.99975092807707
C          19.14322499737216  -11.26273838117943   -6.71978883676761
N          19.89638037340152  -10.61773090210180   -7.29635262426750
C          16.89537358708524  -11.95458767358616   -6.52177084625722
N          15.88232533686428  -11.90839135965364   -7.05958704989516
Cl         21.72928670823294  -16.03110251379592   -2.53195876577155
H           1.53950044086539    5.00449614581566   -5.11288655307017
H           2.67401185324692    0.11245972335179   -2.21571252832881
H           3.30637336533022   -2.49791621310073   -2.21377035530845
H           6.44393201826275    0.29034574956330   -3.26638368241257
H           7.76823750344157   -4.52113880856683   -2.90412721724203
H           4.73704817278721   -7.23807988001238   -1.41239887605736
H           7.05094952312021  -10.01200843457637   -0.44121390555785
H           5.70341981509665   -9.04753779294371   -1.06357426360881
H           7.73014689550316   -8.17554614748295    1.07152276440981
H           6.05041939790186   -8.62908097818779    1.37035352060386
H           6.42039924821503   -7.15199412924320    0.47605236694993
H          12.61560178699315   -6.57449421709400   -4.84892062942313
H          11.30549236131857   -5.51665253930203   -5.40062306777037
H          11.72523325490438   -8.37066906421685   -6.44604605052878
H          12.20676903234452   -6.89116312592274   -7.28393601817933
H          10.50003621796468   -7.21729239772289   -6.97938437403729
H          11.31770051212645  -10.17876419817699   -3.03214159625063
H          13.31084019822639   -8.49346118812832   -4.64914551419046
H          12.38311978127472  -12.04102992489356   -3.50116860493439
H          15.58634194079825   -9.34696566979033   -4.54393550918208
H          16.07228348606187  -14.45405334860080   -3.18609641933083
H          21.47726482325389  -11.77580126462701   -5.45532443293151
