89
 SCF done       -183.467748938831          0.000981435985
C           2.64556754593946   -7.27795993181402    1.64311383615252
C           1.74318771223731   -8.12066757828993    2.21341600445663
S           0.40867822002034   -8.41502343420379    1.15555756478853
C           1.09233598766252   -7.40618571961360   -0.09750207319042
Cl          0.27384110170934   -7.12692696294453   -1.55592363568452
C           2.28122287743512   -6.88333214087482    0.31354110427682
C           3.32080767425633   -6.00683059282687   -0.23208060233955
O           3.52497801780087   -5.71604339306324   -1.38867790545730
C           4.17680830406207   -5.66983682085123    0.94436948001466
C           3.87318253089589   -6.60302430211239    2.02264860182596
C           4.53867005933891   -6.78376442122644    3.20171746785764
C           4.04398043033058   -7.66320000486540    4.18769319937430
N           3.63036426369667   -8.36153738303651    4.99838951439913
C           5.75328782391317   -6.15985124308034    3.55290749115150
N           6.75240550920500   -5.69897326470724    3.87798767600869
C           4.97845141179638   -4.58240284369496    1.05072857863369
C           5.01538998671359   -3.44581719616205    0.19273406460698
S           6.50138430846786   -2.52469447156678    0.17057215027596
C           5.79527763874026   -1.34613215950404   -0.86632846062293
C           6.22997605832190   -0.13728314641133   -1.42533099590921
C           5.23207687245303    0.48159696847869   -2.13150446391335
C           5.37865027087901    1.77217583799905   -2.83246284208320
O           6.41764911434773    2.37219618854906   -2.83308097111996
O           4.29688648537671    2.24191317895499   -3.46960409678222
S           3.73331381879848   -0.42803563993184   -2.11736906623774
C           4.46923324612968   -1.66731011990327   -1.16788074486947
C           4.00722302854936   -2.86244310761242   -0.57519274570244
C           2.63293257164911   -3.31236509092784   -0.60762587374082
N           1.85239695544824   -3.35551683605549   -1.72640879653703
C           2.28189107009555   -3.18960712176795   -3.09910572160313
C           2.07085674329840   -4.45935345904892   -3.91794676967224
C           0.53013277233782   -3.77037625461986   -1.41776249416400
O          -0.35909453003282   -3.86931204545619   -2.23473285946237
C           0.55325287346725   -3.98470378871103    0.00786884832588
C           1.86288020721670   -3.70300637178560    0.47816369364093
C           1.85920501735718   -3.89635169423763    1.90793499761729
O           2.73635715274750   -3.79869521092501    2.74438965134813
N           0.54050174640935   -4.28755845011799    2.21436279196317
C           0.13612701994996   -4.39785746127609    3.59737284890496
C           0.27310705913605   -5.81401856340612    4.14976387492141
C          -0.24569003920304   -4.35840007893627    1.08122528097343
C          -1.59977852442460   -4.75061354068211    0.92688914314377
C          -2.43884639805961   -5.32567048204661    1.82331296392353
C          -3.78261426268633   -5.68103141811395    1.52710688256933
S          -4.77350654864859   -6.38702272567918    2.77244437623388
C          -6.15239899656962   -6.48032943385772    1.72554948503383
C          -5.82494372382552   -5.98837943669479    0.45579865510376
C          -4.49994706767683   -5.54404487775878    0.35444954149658
C          -6.69875908572347   -5.93708003751273   -0.64518516883205
N          -7.36776777862175   -5.89690035342747   -1.57642194375654
C          -7.38132085258409   -6.95894954328297    2.23867271513567
C          -8.55600653058663   -6.96566504957110    1.55748994681998
C          -9.78210278281824   -7.37952980459005    2.12745569613506
C         -11.01713415931174   -7.14512946475332    1.60413087272058
C         -12.19392140018288   -7.93995219950398    2.07356129788897
O         -12.24228480504033   -8.63850491001551    3.05714711738465
C         -13.21680591627590   -7.70990650798183    1.04608355397351
C         -14.47190658117839   -8.15962237394165    0.76366978432880
S         -15.07784430849712   -7.41009086278162   -0.69482420439340
C         -13.63173188834935   -6.48933727166381   -0.89935121790398
C         -12.73884684511259   -6.75131013420864    0.09118432517879
C         -11.42302886968192   -6.29419122653081    0.50056687242193
C         -10.82097712327545   -5.15012033075048    0.04656376354832
C         -11.37941794062463   -4.40463568876063   -1.01411508817794
N         -11.82509846011590   -3.79732765668664   -1.87899869098258
C          -9.69937491528302   -4.53237319808672    0.63538626101585
N          -8.82521537945114   -3.95621064381439    1.10648501875875
Cl        -15.40189733649872   -9.27772099972350    1.63198952118526
H           1.76010163416062   -8.58570537013006    3.17912331060671
H           5.63579507938675   -4.51149344548333    1.90858094972892
H           7.21347486905349    0.28134126719096   -1.32151378649705
H           3.52035398322878    1.67112083681319   -3.39390241970868
H           3.34235431703904   -2.94004523977556   -3.09928993222045
H           1.71116592972591   -2.36429770884359   -3.53839572177147
H           2.59933833251628   -5.28679182718591   -3.45285196748282
H           2.45988767870205   -4.30706654956090   -4.92080918582499
H           1.01331271254231   -4.69652020385971   -3.98486685379457
H          -0.88610338833439   -4.02626890855204    3.69645212714087
H           0.80387203946985   -3.73920157512571    4.16171428846876
H          -0.27676915773130   -6.53361720362509    3.54714969560591
H          -0.10501959171474   -5.84512870879652    5.16784195973848
H           1.32016729199403   -6.10447815530928    4.16503894848946
H          -1.95615775531244   -4.57837416816059   -0.08019230935438
H          -2.11711463098604   -5.55538411193236    2.82671807809802
H          -4.09317902800543   -5.13438846953428   -0.55249076589251
H          -7.37048167937089   -7.27548926551003    3.27415100307373
H          -8.56981901393612   -6.63928745168394    0.52915406131262
H          -9.75217347473431   -7.98088151597166    3.02950337646455
H         -13.54099458619083   -5.82996592043417   -1.73961393820959
