107
 SCF done       -197.900238862164          0.000988118151
C          -2.39066692295232   -1.73898488053321   -1.06255596878469
C          -3.06101617314234   -0.57666690710862   -0.83358785936495
S          -2.09893373203108    0.52938721692612    0.07504978335514
C          -0.76234235858986   -0.59349866303522    0.15293764266319
Cl          0.67625722479649   -0.20127604484582    0.95489603416188
C          -1.07459664309366   -1.75119970958555   -0.49741922807894
C          -0.41480967018800   -3.02984107242063   -0.77404290458258
O           0.70062460956784   -3.36886882827883   -0.45699564104498
C          -1.40886385386070   -3.79550636027227   -1.60075284260406
C          -2.63306556131374   -3.00453147226550   -1.72075629927926
C          -3.82187589281357   -3.38265476230794   -2.27897394260803
C          -4.93173226706734   -2.50953717064221   -2.29993715271342
N          -5.84098123698836   -1.81114488962334   -2.32195732075991
C          -4.09521724789397   -4.64087997110781   -2.85444303362365
N          -4.38300195204352   -5.64976108498773   -3.31906449711394
C          -1.14464439449622   -4.93455186714007   -2.28078150460969
C           0.02887316106236   -5.77033809490072   -2.14099783549294
C           0.58742842215600   -6.35458499062368   -3.27461519699822
C           1.72777664099994   -7.13804721471692   -3.18347826641349
N           2.28168564066747   -7.62562805504285   -4.42162670614852
O           1.55694577691324   -7.62284677010958   -5.39374158249069
O           3.43721416178245   -7.99695421832403   -4.43026091287574
C           2.33258118722954   -7.41212567119608   -1.94289974506478
C           1.72029299554584   -6.86053074122734   -0.80987797590809
C           0.60794285599455   -6.05694086248579   -0.89792007750751
C           3.48685010820619   -8.27586898648067   -1.79191525712831
C           4.43776862086492   -8.06421484203835   -0.86928066135539
C           5.59711568082943   -8.89635394114956   -0.62862437135379
C           6.50490424902663   -8.51141592703144    0.35397073314367
C           7.62242123923436   -9.27980407642520    0.64734791745778
N           8.50744531138668   -8.76133522394515    1.65329675957462
O           8.04260613346048   -7.97432039504448    2.45323954082606
O           9.66670640734236   -9.12788062688083    1.65768886260658
C           7.87473554979380  -10.49229205324682   -0.02009357221420
C           6.95385902734274  -10.86282595711542   -1.00859392548304
C           5.85876236150891  -10.09025741973376   -1.31653921029429
C           8.97386084949646  -11.37076994361765    0.33573126718523
C           9.56372308095069  -12.21853486145707   -0.50613700312332
C          10.65538965609201  -13.17160130097209   -0.15401305818363
C          10.19290626019983  -14.61726564580576   -0.41102392575058
O           9.53617859966424  -15.00082714464186   -1.33196599085561
O          10.63412460591472  -15.40897885389937    0.56643820987933
C          11.47055363319423  -14.71150012504446    1.48910710772649
C          11.11012156101554  -13.22606963410988    1.30269147299129
C          12.19689651456873  -12.22481142873177    1.67845228356591
C          13.57555536545866  -12.61251776533520    1.16231475853645
C          13.99266897325492  -14.03262107253792    1.52650154913253
C          12.93629326904569  -15.10148149958769    1.20160148423910
O          13.29783389900242  -16.21796479570070    2.00893474774722
C          14.08296336240063  -15.86510137133579    3.03132767006152
O          14.50053428884553  -16.63310924099122    3.84244483482047
C          14.34747286584128  -14.34789500887656    2.99135965568668
C          13.48948376882231  -13.72108263011256    4.03295526395961
C          13.96916596722565  -12.98779317257003    5.04752181972537
C          13.10877269607510  -12.34936811076047    5.99770585952174
N          13.56479847160209  -11.65989273628858    7.09283208157707
C          14.93763890189493  -11.48742466494551    7.49965317189001
C          15.61330646352284  -10.34400124567453    6.74527565060855
C          12.51362218197518  -11.05649119340933    7.81462130059095
O          12.69266728316775  -10.40288542057024    8.82248512918312
C          11.32477747751887  -11.42082034253926    7.08209276407585
C          11.72681185021899  -12.23527996302279    5.97931524324358
C          10.54137769929720  -12.58429465260161    5.24268345599237
O          10.36441883681419  -13.27081842257961    4.24604673886757
N           9.49792937235260  -11.95207877308647    5.93032234330644
C           8.15432362556681  -11.98297190451562    5.40720728857705
C           7.87155980302567  -10.75481347059444    4.54487398659267
C           9.95371313979106  -11.24448614060063    7.02134772007333
C           9.09339377725347  -10.48611702866993    7.88388927092939
C           9.54175668056492   -9.81346242156896    8.94544613433951
H          -4.04812606333615   -0.28968501011573   -1.13749939530189
H          -1.84797544807751   -5.25892292794852   -3.03857581676671
H           0.16466543745484   -6.17322129051510   -4.25236816896617
H           2.12605719745181   -7.09660402964236    0.16115608113660
H           0.15716181979183   -5.67372120921773    0.00252218303584
H           3.57023727471931   -9.10355123583832   -2.47991058020525
H           4.37645979481262   -7.18152938155357   -0.24534896007206
H           6.35960715372459   -7.59306859073944    0.90453852353994
H           7.10301339665736  -11.79879847286306   -1.52340401559487
H           5.18946501941689  -10.41955097045738   -2.09483555401451
H           9.33508549824623  -11.29087132686072    1.34978107959804
H           9.26562572050903  -12.26744615646327   -1.54465079153475
H          11.50371890917750  -12.99722009322121   -0.82854565609212
H          11.19996112493998  -15.06644473817638    2.48721673933313
H          10.24705304303041  -13.04827057312480    1.94941077721694
H          12.22638617319615  -12.12916436121299    2.76227303258534
H          11.92112243607311  -11.24845674849002    1.27519325518156
H          14.31684117686980  -11.91412678385767    1.55371907322318
H          13.59597294634425  -12.52994457963941    0.07265159041447
H          14.88684432060339  -14.27780459984454    0.93969504117557
H          12.99766503911726  -15.43352015827661    0.15925298767357
H          15.39970144168334  -14.15077613495094    3.20763607988142
H          12.42857382000727  -13.90978836872134    3.97265787955731
H          15.03361220977205  -12.83255824530922    5.15140862973921
H          15.48014043045111  -12.42604368863591    7.36001138335580
H          14.91102520870358  -11.25000819891910    8.56702270689273
H          15.61272176645862  -10.52679620348082    5.67282871379268
H          16.64041430373831  -10.23599690547715    7.08260707032435
H          15.08456182109017   -9.41357191260417    6.93649700189783
H           7.43617547872960  -12.06443669681994    6.22624437445576
H           8.08828622078000  -12.88565109377836    4.79228059507007
H           7.91048574861690   -9.84161966880996    5.13405931582159
H           6.88974099906146  -10.83501846074337    4.08548637668134
H           8.62406990486327  -10.68518444984016    3.76306367357625
H           8.04063683954518  -10.47619936407659    7.63743165137682
H          10.58596075053829   -9.80661683362368    9.20905361811134
H           8.87099684816404   -9.25240600940742    9.57290543787559
