71
 SCF done       -141.162670292097          0.000652665538
C           9.76874076170208   -1.16610356056847    2.45861088711048
C          10.82944160526409   -0.71884471587894    3.18577120737324
S          12.12813360404246   -0.23264624026484    2.16022227111127
C          11.22895980616574   -0.64016277847051    0.71749070916789
Cl         11.89016927687188   -0.43006009125005   -0.82720286612930
C           9.99687387001010   -1.12207567888817    1.04606159541033
C           8.82107293696528   -1.62260053630085    0.32617265638887
O           8.67394854615854   -1.70900721572961   -0.86852395540135
C           7.83047175323842   -1.95637008960548    1.40476310251342
C           8.44304301534842   -1.69099636164323    2.70726048992795
C           7.92058403453805   -1.91857767516754    3.95044307072612
C           8.65522610824101   -1.61950539096757    5.11898043573425
N           9.23574542717650   -1.38060733629026    6.07886794271301
C           6.65194318459195   -2.46322281751769    4.23670076056833
N           5.63844937891134   -2.90469826010123    4.54635512677203
C           6.53667281073504   -2.30833807450689    1.22066807226848
C           5.85127355816010   -2.60412048984121   -0.01744318748682
C           6.41638852579371   -3.30671976508654   -1.08116968484986
C           5.66226492195781   -3.54929410815759   -2.22520541635295
C           4.33882573516045   -3.10314417694492   -2.22978887100468
N           3.79276505786694   -2.43895912370450   -1.22886770858553
C           4.51643258645149   -2.19115175576443   -0.16057215327935
C           6.23270042302425   -4.26695971350004   -3.36826162611339
C           5.87049041214264   -3.94945899884070   -4.67304696191140
C           6.46110891105036   -4.63071888477519   -5.73580989177949
C           7.37652192994996   -5.64238274387360   -5.42299697966822
N           7.69374963128247   -5.97348412005393   -4.19105548769493
C           7.14704784817305   -5.30915693076891   -3.19229707186520
C           6.12551828679525   -4.34943256600666   -7.11710524352337
S           5.87515302227711   -5.67221203204506   -8.19536081488153
C           5.47657193082573   -4.63415792383977   -9.53010184320298
C           5.51524799887747   -3.29855926061642   -9.13251100659119
C           5.93248161850404   -3.13652704996125   -7.76567210839295
C           6.15876096375610   -1.81885201346975   -7.26960899900068
C           6.77595833336762   -1.57546037591911   -6.02269744393883
N           7.31071933383953   -1.30502843437796   -5.04493086311858
C           5.84044653862389   -0.72939238567973   -8.05254021480277
C           5.27168859379540   -0.89353062563701   -9.32016673420902
C           5.11201910905160   -2.14891415326160   -9.86923446723246
C           4.44547062136568   -2.24629179471578  -11.10976065315162
N           3.84506675035602   -2.26380445364425  -12.08727776017632
C           5.30063048709016   -5.18950970091956  -10.83195009848621
S           6.08630920287984   -4.49508020587281  -12.21093139982995
C           5.53938838036111   -5.73660070371466  -13.27440001466322
C           4.78211147346260   -6.68272576934320  -12.57824801972075
C           4.65506672836422   -6.37788064841153  -11.18149732742839
C           3.89677499060329   -7.21840378678805  -10.34572285846195
C           3.30713781842648   -8.34187215414718  -10.86937761676860
C           2.54503145441210   -9.19331214891874  -10.03708216506366
N           1.93315293176145   -9.87181476249418   -9.34566319299150
C           3.45233880109246   -8.66113612423579  -12.25745236136186
C           2.84254747068190   -9.83073895007604  -12.76655792100981
N           2.35903157396207  -10.77563252869466  -13.19830010948874
C           4.16933000005677   -7.84097532466927  -13.09284708506969
C           5.86132345991571   -5.72767568541904  -14.66898045486936
C           6.56580969010483   -4.77441758290167  -15.27928245702284
H          10.94025988936072   -0.63633951588406    4.24869831837367
H           5.89375698295060   -2.33458807510521    2.09305427913907
H           7.42877571940023   -3.66925074158874   -1.01709443398074
H           3.67769102794893   -3.31520095780460   -3.05956208227189
H           4.02701067010919   -1.62322223070004    0.61956923771086
H           5.13252411534161   -3.18348895796549   -4.86077295096699
H           7.87186034354356   -6.19873019078556   -6.20867588889116
H           7.43009244545474   -5.64327208533669   -2.20362645986923
H           6.01713465513058    0.26554054842725   -7.67278447365953
H           4.95854606264101   -0.02578954964318   -9.88059844310689
H           3.77144048727219   -6.98272801971325   -9.29970990719421
H           4.25791287423710   -8.08945108807180  -14.13923188080352
H           5.48616525058213   -6.56778087100768  -15.23718604384676
H           6.94529350769702   -3.92092566964215  -14.74167357415546
H           6.77406273705315   -4.81678581641162  -16.33290092784426
