83
 SCF done       -163.712882143455          0.000585768279
C           2.66974707351744    2.64316592667974   -2.13326017731418
C           2.04167671426490    3.69526477868521   -2.72550582815991
S           2.06664521920655    3.54977978628872   -4.44441054823427
C           2.93965526591347    2.03725593096406   -4.36799371341290
Cl          3.37768490003559    1.19987360795456   -5.77388133470543
C           3.18613338065457    1.69380477786793   -3.07232357713778
C           3.84987570677271    0.59237021275292   -2.36539602857318
O           4.35315640817002   -0.39284059389856   -2.85255022168220
C           3.69074778587813    0.92524795323992   -0.91233937102655
C           2.97870775666521    2.19470495883904   -0.79164088888908
C           2.67829986697230    2.88992331804274    0.34774473164247
C           1.99117494425263    4.12196588095979    0.29338632255414
N           1.43197887004221    5.12326038186284    0.26657395494351
C           3.00203699286760    2.50612196050593    1.66507627288898
N           3.23734387433127    2.26176160775448    2.76179716716482
C           3.99613497002237    0.10307178747767    0.12227505790815
C           4.74504605964010   -1.12808052239113    0.06924615032835
C           5.86556249580055   -1.29689647425428   -0.75100232735775
C           6.52650376832334   -2.50283457805632   -0.79519532382971
C           6.09137015875688   -3.58652630430858   -0.02540347934691
C           5.02208072953792   -3.39347139048755    0.85878182697272
C           4.37027937450248   -2.18401954520334    0.91150591360502
C           6.73437498821103   -4.88394295246384   -0.05819286692579
N           7.27110603951987   -5.49259857865704   -1.16622000928212
C           7.14126155284538   -5.10986539860763   -2.55487015385409
C           5.68624965979417   -4.99440813801462   -2.99536003636160
C           7.83296582785875   -6.74790942723069   -0.84348556199076
O           8.34819710433619   -7.47833770980871   -1.66783341559575
C           7.63371583264626   -6.88049662588141    0.57765388749084
C           6.93429986523040   -5.72487643384400    1.02421201451305
C           6.74452928879267   -5.84661711478911    2.45559952574710
O           6.19315056067362   -5.13958069466949    3.27131864508895
N           7.34760262720520   -7.07813223934861    2.77803155272864
C           7.39685650431051   -7.55124478553915    4.14042066371813
C           8.76184107694023   -7.30655059179869    4.77861942087289
C           7.87951596138668   -7.70079009682390    1.67357394409276
C           8.52903007116626   -8.96198739631518    1.71786358139580
C           9.00963435379407   -9.57731962339729    0.60981260313922
C           9.64283211433616  -10.84618112808996    0.67737810789093
S          10.16744105386079  -11.71199625840114   -0.75828124153204
C          10.70343083136486  -12.96370349409525    0.35506511329336
N          10.47736287644950  -12.65258091782891    1.60232559223041
N           9.90011542160116  -11.50527387985229    1.77782662818276
C          11.28430454379920  -14.17936252141148   -0.09700747771051
C          11.64802446465414  -15.16917851840351    0.75097331851037
C          12.26531141713994  -16.39090232270680    0.36894044327213
C          12.21352068990357  -17.09136363020869   -0.79610618288499
C          13.27032607917270  -18.13253663975037   -1.02705922648058
O          14.04922211918229  -18.55172900580666   -0.20605114216919
C          13.15880760261558  -18.46277903057577   -2.45080103033650
C          13.82386169288161  -19.23373421483747   -3.35678848194805
S          13.07275871094614  -19.11279620583916   -4.93054243885885
C          11.86381227184691  -18.03056819362902   -4.34144121301148
C          12.03543113941475  -17.77549083121412   -3.01689910319573
C          11.36622357425632  -17.01671874333294   -1.97400066302992
C          10.09016231976982  -16.53186268520983   -2.08876637942263
C           9.38195751156377  -16.61126728160368   -3.30690587491298
N           8.79938247273109  -16.65129278836813   -4.29445348121878
C           9.32643221770855  -15.97556866122149   -1.04588698408888
N           8.64448560054288  -15.53112598103850   -0.23683239710645
Cl         15.18766304541389  -20.20505705361011   -3.10245251710608
H           1.56367369595663    4.54338157033910   -2.27711374382049
H           3.60864646105754    0.35547513999422    1.10250625882446
H           6.23426199212306   -0.46750477781635   -1.33203420295607
H           7.40735762716365   -2.59498296318746   -1.40961742330068
H           4.71165998112811   -4.20217239188327    1.49995101510063
H           3.53737877026031   -2.05264300408759    1.58603194010138
H           7.63789140921157   -5.90933725167384   -3.11425606976529
H           7.67551756565938   -4.17713618791398   -2.75073800478192
H           5.15186055576082   -5.91531846987453   -2.77269985250767
H           5.64708605996290   -4.82157236794316   -4.06709370538808
H           5.18644888627052   -4.16787827900180   -2.49603952913153
H           7.13924300112859   -8.61338544482736    4.16846371671363
H           6.63260406194634   -6.98662361650658    4.68214953697866
H           9.54632625042929   -7.83030328496224    4.23715921191099
H           8.75331841931900   -7.65704280322318    5.80681252203707
H           8.98770202002951   -6.24294551161739    4.77580285014108
H           8.63471931300112   -9.46085399673789    2.66985911006708
H           8.91629913320644   -9.12021571392234   -0.36536553806834
H          11.45213187047038  -14.26258352482388   -1.16194743976191
H          11.53487127316650  -14.98598126738472    1.81073527831207
H          12.93773653706640  -16.82224127090059    1.10651224997972
H          11.12070171392602  -17.65616024911596   -5.01709992221068
