80
 SCF done       -180.037621829505          0.000382981299
C           5.16326172229125   -2.34196062537951   -6.74710993350950
C           5.28176229102767   -2.22294337212004   -8.09828185417988
S           6.45946543080184   -3.31788760952218   -8.72069701733410
C           6.80248384215473   -3.95590098290550   -7.13062375015712
Cl          7.95249827350036   -5.17677940315829   -6.89900946801303
C           6.03375955532285   -3.33320260709957   -6.19207394572458
C           5.85472189454436   -3.41131443545223   -4.73907894393784
O           6.41602939680609   -4.15800955632056   -3.97452057746764
C           4.82269755566482   -2.36209717946461   -4.42839257558605
C           4.38785233954592   -1.74308194664261   -5.68049383168646
C           3.42628090753160   -0.78926137022190   -5.86898879228418
C           3.13281942346950   -0.29711207238597   -7.16066374721283
N           2.88254069990696    0.11515805274122   -8.20097766611896
C           2.61764267074685   -0.19304467517798   -4.87848213376443
N           1.91498980355314    0.33547478902453   -4.14120043046557
C           4.37514628623883   -1.99178959790552   -3.20113808848516
C           4.74264575732666   -2.50369209722159   -1.92905729919708
O           5.59735480312300   -3.51749364711726   -1.69887922859064
C           5.61964729573960   -3.61181208940555   -0.35663370072618
N           4.82452429815580   -2.71020306102278    0.18824671801444
N           4.27893608237012   -2.02302912910549   -0.78996395525816
C           6.42442188892328   -4.57463916732266    0.31101126846456
C           7.18861725001893   -5.44625196099181   -0.38897655243815
C           8.03858767105553   -6.43381169474184    0.18205656647136
C           8.30277564838442   -6.70041160617976    1.50502072036734
C           9.24001820854879   -7.77639316735421    1.58873073227709
C           9.53520564345604   -8.17101547723871    0.19567780287975
C           8.81977632269016   -7.36352685356426   -0.62663041341983
C          10.40695040761313   -9.18210742797330   -0.22405877535245
N          11.11791043373798  -10.00224306933453   -0.60021955988574
C           9.78294919992712   -8.32998371045309    2.72058197373097
C          10.70429647985437   -9.41947353712771    2.79739400229795
C          10.97449236186866   -9.68670249013623    4.11544641712785
C          10.25560749035781   -8.71840003047758    4.93432364034337
C           9.54225243656693   -7.90662240152436    4.11388876856408
C           8.74505269365492   -6.83546252284829    4.53516469853093
N           8.09681128031995   -5.96001318284318    4.89798609744796
C          11.90616724788083  -10.65195577812333    4.60053357018690
S          13.36648288760941  -10.83113805457714    3.70597156431234
C          14.14051217318421  -11.72780138405238    4.96287850606606
C          13.23888450122369  -12.00139314716602    5.99890513413869
C          11.94353874673783  -11.40970220257637    5.78314797782089
C          10.90522628830634  -11.71943684873255    6.69484990106228
C           9.44710409996183  -11.41802466356703    6.45001136207154
F           9.11918637448453  -11.32083589025438    5.15502585398376
F           8.67023064355324  -12.39735169482307    6.94340288732890
F           9.03103553529964  -10.29055664406252    7.04968117770631
C          11.18318245422213  -12.43415296761263    7.83916740732383
C          12.45125768426158  -12.96703252937951    8.07322081135059
C          13.45658221597832  -12.81790412238938    7.13867060217715
C          14.63139343913228  -13.57782994077642    7.33164548331351
N          15.53258906348412  -14.25628355997255    7.53962302798755
C          15.52390129779601  -12.01319968682989    4.80730775282078
C          16.52700109681313  -12.00372785846511    5.72007153844799
C          17.83098478984995  -12.64731808449631    5.34066261782067
O          18.15899694522893  -12.98106263597200    4.22964438348272
C          18.54021907096078  -12.79762567297481    6.61158779990869
C          19.69337495759594  -13.37667084233362    7.05153587785240
S          19.86381650560648  -13.16066996656294    8.77740020779861
C          18.38346208040898  -12.28375263881612    8.88228933609549
C          17.79101823512084  -12.17301479110687    7.66314558129275
C          16.59657746844393  -11.57214468605789    7.10508059520288
C          15.81443930859570  -10.65102616612487    7.75130059170375
C          16.02804884314122  -10.33068754457151    9.10896114918780
N          16.16671352787288  -10.07476228649120   10.21831073632636
C          14.79219805296573   -9.89093949603739    7.15724737445342
N          13.96826566338037   -9.22277597697057    6.71666681984725
Cl         20.85703979791004  -14.20511256316076    6.14563716962522
H           4.76418676867953   -1.57032795245183   -8.77284016082854
H           3.65010384444088   -1.19374562106666   -3.11311854093327
H           6.38235790588404   -4.55636078217269    1.38805381911098
H           7.16414667756554   -5.39643075445659   -1.47138897555548
H           7.88886233920359   -6.19366693705991    2.35353520216740
H           8.81339810273431   -7.38604619895590   -1.70093277325528
H          11.08259388223499   -9.96644061585755    1.95624532860710
H          10.34113084738864   -8.63127785393814    6.00041315690343
H          10.39255508972330  -12.64390449263570    8.54267376251448
H          12.62735122779864  -13.55982889676613    8.95736314466869
H          15.84023422037867  -12.25792524617931    3.79625663784984
H          18.04863235018508  -11.92654340741280    9.83588743400746
