90
 SCF done       -189.754903292152          0.000575565789
C           7.37849479598260   -8.41501123322299    1.12028658985191
C           7.12767246748540   -9.64312371554999    1.64703889036375
S           5.45339725006805   -9.82992854692596    2.02266091619793
C           5.08087041832942   -8.22086385325853    1.45988525978336
Cl          3.51817797827587   -7.57572134505331    1.58211852713394
C           6.20605615050949   -7.60054503914123    1.00830782695025
C           6.56114467173328   -6.28140985866258    0.48993287082482
O           5.81434105200479   -5.39547931006770    0.13740885038550
C           8.05575889058650   -6.30775845632363    0.37678690618059
C           8.52702678291305   -7.64342754532763    0.68565914779126
C           9.81408245486315   -8.11816144692139    0.65136616626006
C          10.10582866183637   -9.45664346358289    0.98660188598970
N          10.35749560537253  -10.54686272454760    1.24116722407165
C          10.95208468270403   -7.37656855932955    0.28175064744667
N          11.91642864104387   -6.82298106063843   -0.00480421671503
C           8.81721421338308   -5.25686180339957   -0.06842109490992
C           8.39349244661823   -3.91459459711913   -0.09893673480777
S           8.98546525835119   -2.77857147851688   -1.27790910328659
C           7.89645847122215   -1.47862530449227   -0.69868552066436
S           7.83240423343058    0.01582848912557   -1.42520311655450
C           7.19517578769030   -1.95676624665407    0.38791246460879
C           7.47406398648651   -3.27406382635615    0.75317150452616
C           6.81866982965628   -3.73559900405990    1.92655649335576
C           5.86762556423173   -2.90590630561987    2.43086608189534
S           5.90785014520634   -1.34625179873133    1.47475452206953
O           6.39184368996982   -0.28740590886243    2.31560442143344
O           4.69581722739332   -1.12401948025537    0.74710675298125
C           5.00124445391708   -3.28669626506155    3.48142822749944
N           4.01633914337196   -2.54992385466970    4.07355934008537
C           3.66219852132043   -1.16383355210952    3.85743818032597
C           2.47227472212562   -1.03243524032848    2.91106098861892
C           3.26481735749533   -3.31958589086527    4.99611490109698
O           2.34623126682382   -2.87946736060112    5.64916867452905
C           3.87783298496967   -4.62835641349096    4.94984645900235
C           4.95367102501007   -4.57743085387620    4.03946830347219
C           5.55398972669352   -5.88953134501537    4.01800566402479
O           6.52976966485956   -6.33345021041061    3.43409395283780
N           4.76728952739474   -6.67022727574156    4.88432799916332
C           5.18880449599054   -8.02254645148037    5.18226951800723
C           5.63689173424913   -8.18720387289623    6.63000954459467
C           3.75109318646063   -5.92819395497584    5.44118883956026
C           2.69188006042926   -6.34073915815679    6.29666616380527
C           2.32612168848152   -7.61606546471183    6.55042584623673
C           1.24131486711539   -8.04384811041735    7.38504629373939
C           0.44862874775116   -7.25188615349086    8.17691512419275
S          -0.69699979842672   -8.14557733441787    9.07974948582977
C          -0.13332521937560   -9.61842774054065    8.42578534616858
C           0.88898273441633   -9.43465433798704    7.53576401091326
C           1.54267121549658  -10.52469568561556    6.81642449442410
O           2.22771781606439  -10.41836770302296    5.82789512192448
O           1.31133682134554  -11.73340349294583    7.40754740313476
C           1.93291984232542  -12.79296916435759    6.83649096048855
C           2.12537874938027  -13.95928498670171    7.46360571408849
C           2.81382583504931  -15.05256085553420    6.84882359865903
C           3.76035116991178  -15.03933446326650    5.87805863948739
C           4.05224327129089  -16.33640656628828    5.17401166702753
O           3.70029744975384  -17.43311170957947    5.53084032553049
C           4.78978039010991  -15.94382514776969    3.97036738711311
C           5.27231131461500  -16.54841918324875    2.84721476443737
S           6.04672886390620  -15.37575053203560    1.80750486867842
C           5.72077192262817  -14.08778692492783    2.90694178952335
C           5.05094846171952  -14.53488361763649    4.00377897633643
C           4.54003057352959  -13.98239115529429    5.24468214216972
C           4.93846834652667  -12.77174524796459    5.74479988784559
C           5.77705895940091  -11.91010094136499    5.00897456649834
N           6.44429033925344  -11.17623519585857    4.43146992932238
C           4.62640319709847  -12.24060157491705    7.01095411842302
N           4.44242770097463  -11.73898630319473    8.02707180604211
Cl          5.18481348239389  -18.18429983200708    2.42121166500978
H           7.80334597546812  -10.44563633701939    1.86588135653336
H           9.81240228598597   -5.45315302669063   -0.44873384990823
H           7.06276833155557   -4.69009848630230    2.36821215227101
H           4.52503078371508   -0.62061104459984    3.47526694696815
H           3.38765407684653   -0.76311913839480    4.83874339323220
H           1.62957611566524   -1.60765089269846    3.28777924255637
H           2.73759442786635   -1.37780195727287    1.91565974581673
H           2.18212247418704    0.01187040463334    2.84533628968972
H           6.04111425863191   -8.21307148010600    4.52317403733891
H           4.40258431455465   -8.73678651267285    4.92497120109499
H           6.45621875729584   -7.50585608263853    6.84634433674258
H           5.98311226149823   -9.20552893040141    6.78204753498863
H           4.82694499660716   -7.98985205401739    7.32733785903051
H           2.12576550690449   -5.51209297978762    6.70048281549481
H           2.85449921390183   -8.42582968647021    6.07895155133399
H           0.48406861961870   -6.18598332719357    8.27997889905012
H          -0.58674162116823  -10.54654965338729    8.71167287730276
H           2.25824075081184  -12.62747765533804    5.81445389791624
H           1.71487682124734  -14.11384880802970    8.45047306593603
H           2.51815258686704  -16.04556211598415    7.17385225320866
H           6.03104109104315  -13.09219568766051    2.65904754044531
