93
 SCF done       -187.916177721147          0.000749404585
C           1.67175758748692    2.24432988902961   -3.06093449857086
C           1.14751124546318    3.41613542326644   -3.51278298024713
S           2.15135914907836    4.12140090923074   -4.72543114605483
C           3.30602763877584    2.81323743705399   -4.62393285001461
Cl          4.69667153540180    2.78587608057971   -5.58979831766932
C           2.90826185504752    1.89781443702415   -3.69487067013612
C           3.41774816984329    0.63246167481280   -3.15679614778090
O           4.43167676394805    0.05490299759828   -3.47027509527653
C           2.36783263659655    0.18916263027570   -2.18043395133926
C           1.33731211974157    1.22206928021080   -2.09301857205044
C           0.28051805039579    1.28022743507675   -1.22718593444708
C          -0.62680316204593    2.36177916338352   -1.25087536389465
N          -1.37299940077377    3.23255901680280   -1.26246503204281
C          -0.01289912907480    0.33503724005440   -0.22274441120817
N          -0.29392465118606   -0.38749292610174    0.62358197416616
C           2.27019246989167   -1.04292854006272   -1.62541540585655
C           3.25261682042419   -2.10048717679971   -1.63337849903198
C           2.80714177503508   -3.42237170844731   -1.69935081589151
C           3.70722680676851   -4.47037262958281   -1.72609825685152
N           3.16912785043040   -5.80911840112751   -1.72288270890384
O           2.05034097504265   -5.95768605838240   -2.16254415665873
O           3.85481769300340   -6.69058785946715   -1.25151366956425
C           5.09709644071178   -4.25252232535094   -1.67274081433777
C           5.52135003064167   -2.92414117779133   -1.53772243647979
C           4.63129286610759   -1.87520159722846   -1.51558409528992
C           6.04508085311035   -5.32964895135669   -1.81702897872925
C           7.23485295669349   -5.38402603482071   -1.18027147968041
C           8.14826902036711   -6.45551791766837   -1.38691879209524
N           9.30195218585322   -6.63391485355393   -0.66625975986387
C           9.75316837070864   -5.84586043065815    0.45437938364890
C           8.98097256347673   -6.18018731309101    1.72842321709203
C          10.00570445947154   -7.78843787787932   -1.07174919523955
O          11.04164840440790   -8.14934488388956   -0.55818441871285
C           9.20678306285835   -8.32724848160142   -2.15274817703898
C           8.07584929339762   -7.48984397224399   -2.31636168444038
C           7.26695322594980   -8.03685740032139   -3.38385862379076
O           6.24327946088628   -7.64814155722232   -3.90930396142053
N           7.95058187444137   -9.19901636270784   -3.77554500964202
C           7.41658825851809  -10.04693137936927   -4.81493239464803
C           6.50498910827973  -11.12931468268875   -4.24393249228572
C           9.10880513394661   -9.38460033997841   -3.05620377429113
C          10.00066824939910  -10.46799918234036   -3.25323677966828
C          11.24950897854514  -10.50250882763136   -2.71666682269343
C          12.13989539273795  -11.58693349699477   -2.90649472245867
O          11.72444574267294  -12.73605862083296   -3.47141464587341
C          12.76964857428938  -13.60376794118540   -3.49247246005579
C          13.88712576193876  -12.99276677994092   -2.94327436418040
C          13.49198230769260  -11.70576625019062   -2.55782629361904
C          14.33162544658605  -10.64910408575271   -1.97034718788038
O          14.07324345462419   -9.47301033905662   -1.99436975573457
O          15.44264984792559  -11.16128765016034   -1.42718893756120
C          16.32524607129367  -10.22309134617425   -0.82863554688987
C          12.64512999271887  -14.88719340774781   -4.07481591101606
C          11.50619223135634  -15.52290502340113   -4.46544169021305
C          11.58317206768469  -16.62597445890468   -5.47252051284492
O          12.57605533092056  -17.21847165904173   -5.81911163725325
C          10.20460529633665  -16.75886618100099   -5.96494658400093
C           9.54636190797921  -17.47175467499184   -6.92156472437549
S           7.84393840036243  -17.07220179132407   -6.92326917135688
C           8.03986927503957  -15.95522916947865   -5.62026771796195
C           9.33688788262232  -15.89160305783510   -5.22093147233580
C          10.11375635524157  -15.22676272833790   -4.19184810174944
C           9.58970162087462  -14.65226818011202   -3.06461663974073
C           8.20637647523387  -14.43187670424238   -2.92720544225746
N           7.08708095553536  -14.20068978652949   -2.82061362266478
C          10.34743469870071  -14.31841363232255   -1.92399757450577
N          10.92032299903338  -14.09991782451344   -0.95408989616701
Cl         10.18437333476400  -18.60737737009591   -8.00468247148730
H           0.24203228682165    3.91227107676972   -3.22469261518297
H           1.33219085131192   -1.30822338553623   -1.15146054278560
H           1.75089268569597   -3.64676752506666   -1.74261187249637
H           6.57989348032866   -2.72198042492549   -1.48754710693558
H           4.99890646222920   -0.87065637836149   -1.38979323334213
H           5.77349989143618   -6.14122962719660   -2.48068272508071
H           7.50156946554818   -4.62879067472740   -0.45406304087490
H           9.66846211818840   -4.78241048886277    0.21331921567251
H          10.80988762617617   -6.09288709993903    0.58981199472970
H           7.91649064881995   -5.99594479597125    1.60015151323764
H           9.34653704304891   -5.57281782209884    2.55179353182713
H           9.12115472021104   -7.22820456343493    1.98063245979155
H           8.23882163948478  -10.48147025585180   -5.38850952537645
H           6.83375481161306   -9.39512230529978   -5.47262704772011
H           7.03863844308240  -11.77452773746610   -3.55016089496337
H           6.10624507862082  -11.73948738566958   -5.04946173386342
H           5.67443595491248  -10.66824404369287   -3.71600611601695
H           9.67158487286567  -11.28673813351494   -3.87886687449716
H          11.62839751703651   -9.68078894673372   -2.12479055265281
H          14.85962271529788  -13.42533325487464   -2.82961421158479
H          17.09704969315389  -10.80533948715249   -0.33224212788311
H          15.78591175947463   -9.60272580918803   -0.11027136720395
H          16.76366545976732   -9.57595821741083   -1.59143050456814
H          13.57765139528178  -15.38184957909603   -4.31848331557710
H           7.18715235650656  -15.42220373860285   -5.24875262430728
