67
 SCF done       -139.109880623142          0.000971721938
C           2.52098535183630   -8.58622520507844    0.13474017677486
C           1.67334994182500   -9.63255989478962   -0.05603252190885
S           2.40758097190436  -10.86397279545250   -1.01757485073638
C           3.89060802889298   -9.95027265431504   -1.17123872669229
Cl          5.21042972477831  -10.54955284198915   -2.04695465700035
C           3.79105561987819   -8.76678004191269   -0.50346628073333
C           4.64033724357167   -7.60061636535301   -0.24681383005127
O           5.77216668881583   -7.40602846829869   -0.64124901001543
C           3.81864403548838   -6.70311361461588    0.59477754631920
C           2.51644792137458   -7.30758255667897    0.81944133800382
C           1.45652153263170   -6.81501499795925    1.53694757272891
C           0.25464253594353   -7.54380398482334    1.65864713750921
N          -0.72797155388624   -8.12534332108027    1.77060768269434
C           1.41603629926868   -5.58337548584941    2.21793243562192
N           1.31544973107440   -4.59562147206698    2.79645210202530
C           4.21991417402897   -5.49887856927822    1.10721292280617
C           5.44619301598260   -4.82445948400419    1.01268620821966
S           6.89567237842174   -5.32501787728233    0.13739733910652
C           7.77038500817106   -3.94194979335584    0.67876763643613
C           7.02327322935768   -3.13960093947977    1.48086608693721
C           5.69731909642833   -3.62171688627737    1.66919873451333
C           4.99238400396107   -2.72392786864978    2.52184079203362
C           5.82676105972337   -1.69970488576648    2.90437971512890
C           7.17942570332815   -1.89703637660362    2.26135250692346
O           8.15986266883294   -1.19974954709181    2.36479856861764
C           5.49448038551626   -0.64075967723094    3.78254109626227
C           6.39309630022064    0.26766362299352    4.24731244579669
C           6.10243531484901    1.29607346772750    5.16576008846186
S           4.47201057762757    1.65431860383124    5.74763662115719
C           5.04199423284936    2.91498828472261    6.78367007393110
C           6.38573530119084    3.05770279509114    6.70086294867859
C           6.99803131324048    2.14913251866386    5.78065820715200
C           8.40653917298518    2.36587165910368    5.79632053827868
C           8.71521847224478    3.35878360979212    6.69188916066667
C           7.45189819772536    3.87593695893299    7.32057453834091
O           7.33245802011758    4.75179847440905    8.14391469923522
C          10.03016905206384    3.80515945725055    6.99965189381347
C          10.33179080495249    4.74922544266076    7.92000266689372
C          11.67017035729635    5.13278123108218    8.22668765017521
O          12.71528505638652    4.54899334047573    7.57978318302271
C          13.86515928834511    5.05948960846076    8.04192592018574
C          13.56350851685152    6.00147044166831    9.02654225419304
C          12.15251344661289    6.04254104390041    9.13630978707477
N          14.41945957760519    6.75558247531625    9.86467715181935
O          15.61956042536580    6.57570447177137    9.78980226437029
O          13.88835916639223    7.53590112206798   10.62760182156636
C          15.08441664624873    4.52973495026109    7.46270357875585
C          16.27489637076306    5.24949869048559    7.33828444264075
C          17.36311687983785    4.63478379793466    6.74554425091185
C          17.22734312062849    3.33432360880442    6.28162628965785
N          16.10173785705637    2.64547654172085    6.38591448062191
C          15.06762893519967    3.22053645974786    6.95722600213019
H           0.67177250656717   -9.77167114285063    0.29949403077838
H           3.49548466017920   -4.96355184520656    1.70913565230339
H           8.79181125421439   -3.80757752015511    0.37800951165162
H           3.96765380906237   -2.83614967605129    2.83102512604937
H           4.46545655860873   -0.59107940026625    4.12079757655271
H           7.42370138106553    0.20323373128561    3.92643189307588
H           4.33948413769291    3.45793861785255    7.38540798454293
H           9.11769478043612    1.82133858538783    5.20034244264699
H          10.83385183036033    3.32442689577588    6.45467653630701
H           9.55385336094490    5.24815364793161    8.47657902672493
H          11.59487642148279    6.66072696621280    9.80822175348124
H          16.34926602184269    6.26355448922399    7.69392060557818
H          18.29738870090703    5.16202661668582    6.63716898839404
H          18.04763085623768    2.81772025994179    5.80168773979626
H          14.17343651840456    2.61672270044277    7.03437045087912
