62
 SCF done       -131.806379709657          0.000393251396
C           0.84102837534733    0.65467264999543   -0.59225409064438
C          -0.29273174371247    1.35261711402382   -0.87055710883602
S          -1.63034060560661    0.29344575527308   -1.12975992324495
C          -0.64159707897358   -1.12362905874851   -0.85672631061683
Cl         -1.29715964470111   -2.68371288682864   -0.94441171035374
C           0.64329264711728   -0.76522587674290   -0.58383805034685
C           1.91139939179638   -1.43971424539689   -0.27356265085571
O           2.13496186093459   -2.62479154831081   -0.18170077682365
C           2.88830399440375   -0.32940250301410   -0.08576589425576
C           2.23029526279238    0.94557981464812   -0.29206594274623
C           2.77171505916755    2.20303599496557   -0.22934543486281
C           1.98840324311021    3.35368181226664   -0.45568856686551
N           1.36388816092998    4.29901392379091   -0.63635080855896
C           4.12054175388847    2.49171824477510    0.05422170625733
N           5.21023485254301    2.77461676211783    0.27981156960051
C           4.19173682650932   -0.55802397605862    0.25116541290220
C           4.70378282884754   -1.82228398736650    0.43225691549602
C           5.20702272329074   -2.92228342142421    0.61444253416365
C           5.68419951366147   -4.15280551798499    0.81071681468245
C           6.10106968327973   -5.28521420670488    0.99751555174497
C           6.48320381363036   -6.59884975013663    1.19872976782504
O           7.68623005941574   -6.90542078619544    1.74185739629111
C           7.74907910117739   -8.25188035205921    1.83179150872662
C           6.58346336718441   -8.82774494416945    1.33629919353208
C           5.76329457824320   -7.75880767134874    0.92669693351674
C           4.40763409726602   -7.82962338066858    0.32542839200723
C           6.27091515371761  -10.27646852318856    1.25359222438924
C           8.91786944902522   -8.83812299007774    2.39260762431009
S           9.06330781629221  -10.53791006945764    2.65798873509384
C          10.66565397893411  -10.35437602977625    3.30042179533792
C          11.31836058346485  -11.52437641544516    3.81876865578114
O          12.44119035687988  -11.58417776708653    4.27490223947358
C          11.05387975196705   -9.01097530082636    3.30419961547702
C          10.04608283597846   -8.16661389065991    2.81675727453851
C          12.30425812663544   -8.49095507373672    3.80562215294857
C          13.54595353500748   -8.98718405233730    3.65926306293986
C          14.64442731211100   -8.49148017382940    4.55738910294821
O          14.62896635752385   -7.48097161465773    5.21451247567397
C          15.66594766165265   -9.53892650893637    4.47725860307242
C          16.84393637416122   -9.83742859759380    5.09573429327580
S          17.50227871314260  -11.32982768202258    4.46913510532407
C          16.18606259430263  -11.52911291657288    3.37262514331996
C          15.29265946948886  -10.51125614706088    3.48982486080452
C          14.04808779644467  -10.10770662260998    2.87163957826207
C          13.57391256576782  -10.57170025655309    1.67792910709754
C          14.20357528468140  -11.63869924310813    1.00193702857667
N          14.69666727086412  -12.51055875313003    0.44332031609507
C          12.46850269776715  -10.03784669235615    0.98808508902183
N          11.59953588465284   -9.62203989181156    0.36329549984601
Cl         17.64058808481419   -8.96110859680500    6.30596257148159
H          -0.44011316617857    2.41199680884874   -0.94167103458331
H           4.87940669635168    0.26638917645964    0.39670355255793
H           3.72684570890312   -8.36510252677638    0.98594385459451
H           4.44196684296817   -8.36095429171657   -0.62521533921125
H           4.01943147119452   -6.82882998688679    0.15463791896874
H           7.04241428927027  -10.80031869386009    0.69015193499344
H           5.31255742009559  -10.42813246097490    0.76562082580928
H           6.23355545993366  -10.71743230667091    2.24960882783456
H          10.67986856059011  -12.42704674785497    3.76806635104042
H          10.14659399104982   -7.09919462911353    2.73793592629473
H          12.22308116664587   -7.59297100563086    4.41101628352799
H          16.15526978154215  -12.38896748502626    2.73339231604018
