81
 SCF done       -164.631601359819          0.000934038060
C           7.53902372930054    2.27525780174202    2.95717355193672
C           7.88086327000737    3.18730400553521    3.90717762553389
S           6.69198824312957    4.43142337580903    4.03503567579375
C           5.70916077819313    3.71357580161782    2.78103974296353
Cl          4.24794346314014    4.41424366850390    2.29173572189757
C           6.29541451431144    2.57515563431992    2.31137805118865
C           6.00243826255513    1.55344673613530    1.30732834010758
O           5.04864639430939    1.49780102190240    0.55790663943989
C           7.12371168220049    0.58675732698475    1.39670292672748
C           8.08555519886995    1.05952723165678    2.38745806547614
C           9.29333914728589    0.51636218422256    2.72965149511560
C          10.10676398895632    1.11016932458648    3.71973945471231
N          10.77985613900613    1.58155827505434    4.51957102025978
C           9.88176010745750   -0.63211740298785    2.16103990219323
N          10.42515016762492   -1.54793161759896    1.73259663684263
C           7.21909588350661   -0.58430124447621    0.70735214908493
C           6.35148572492192   -1.15482009150763   -0.25465272718996
S           4.88649612320195   -0.47882804960936   -0.89425643690223
C           4.63975932288813   -1.86645787981569   -1.89342515522299
C           3.39702259721607   -1.98157662752983   -2.62447495793074
O           3.06098196611450   -2.92618474620955   -3.29879878671196
C           5.65654281830475   -2.81391905271868   -1.75054005060036
C           6.60413980545248   -2.40286679114133   -0.81053687829987
C           5.74418050176461   -4.12841669526526   -2.35697568742695
N           5.71212017894842   -4.44022887807334   -3.68413361785724
C           5.67808333731804   -3.52875607518080   -4.80154029270163
C           6.90953791592631   -2.62944288654721   -4.84274032419990
C           5.86561871127114   -5.83124735105298   -3.88737844743596
O           5.88687929168282   -6.34309581756408   -4.98918219869771
C           5.99095464684721   -6.38127812074664   -2.55853954871540
C           5.93003607950560   -5.29411539366753   -1.64125559432562
C           6.06085674705357   -5.81940942103379   -0.30197558807349
O           6.07756411135879   -5.28559421261551    0.78696797528786
N           6.20997930850724   -7.20697462171473   -0.49767102235278
C           6.32709647082732   -8.10628716736337    0.62406415690715
C           5.00884048366412   -8.81667128635798    0.92248332992325
C           6.16996414944290   -7.55143161465123   -1.83044739129905
C           6.33948464327816   -8.88200595093710   -2.30531395968926
C           6.29651737093806   -9.18518170843347   -3.62282993650647
C           6.52614190667399  -10.48530612627942   -4.18224953518499
C           6.67348915855454  -10.64046405768962   -5.57423758294752
N           6.93760317370990  -11.79223891098857   -6.14002267449579
C           7.11643285573069  -12.84638108594704   -5.33995928060305
N           6.94355951206783  -12.82702232361778   -4.01483641440514
C           6.63050573543635  -11.68242808416072   -3.45487559841891
C           7.43898712491422  -14.09297188109494   -5.99183587941548
C           7.95088173315825  -15.21924644330142   -5.45199698986813
C           7.85297920720262  -16.50668288912088   -6.22395239465617
O           7.59880165175470  -16.62262709520258   -7.39608762211173
C           8.07634181816435  -17.54807575121222   -5.21546234552417
C           8.04438993921538  -18.91009605918588   -5.16033149271218
S           8.43506795119850  -19.46641207920073   -3.55056342415245
C           8.64554657910350  -17.85330304633599   -2.97330869679027
C           8.42238978968122  -16.94511742866787   -3.96034907562560
C           8.48742831811053  -15.50571317388144   -4.12809516114349
C           9.13134781705448  -14.65368349117528   -3.27765829782299
C           9.63749730539364  -15.09755849181065   -2.03744424192413
N          10.03265083298148  -15.44290476536329   -1.01719014362082
C           9.44868971009269  -13.30887365122850   -3.55900098280652
N           9.81386601758199  -12.23610432968445   -3.74008952485622
Cl          7.69451665786084  -19.99815329283516   -6.40982464230911
H           8.74379818255825    3.21770035835876    4.54247488027703
H           8.07603623074252   -1.21292608591607    0.91982760152313
H           2.73959759248862   -1.10162063505355   -2.49501567518275
H           7.45587660588276   -2.99878196053260   -0.53444720511477
H           4.76200067304146   -2.93630719826606   -4.76530677015906
H           5.64758629238831   -4.16278063428898   -5.69223369495337
H           6.95332805270264   -1.98280067704081   -3.96874922566416
H           6.87484858334999   -2.00630001953438   -5.73186005565037
H           7.81533675203474   -3.23094383006650   -4.87628524953970
H           6.60932003765609   -7.48429248054204    1.47834636888217
H           7.12698348266588   -8.82833655332294    0.43676420483529
H           4.23734193288439   -8.08503847942461    1.14944490905794
H           5.12961897498589   -9.47195079735426    1.78069802304637
H           4.68183332353118   -9.40956493993795    0.07085010566066
H           6.53874301256457   -9.64913963372774   -1.57139719478899
H           6.11446935823213   -8.39359498982738   -4.33841980538917
H           6.56932262344697   -9.79032020256259   -6.23675153555260
H           6.45671501121276  -11.72268125829313   -2.38707364438278
H           7.17471023198771  -14.13223092564109   -7.04258413716547
H           8.91114497423785  -17.69130628134556   -1.94754375699592
