92
 SCF done       -192.220839755704          0.000449651605
C          -3.64303091981427   -5.11684934398929    4.68610203134980
C          -4.90231860865639   -5.04799113216363    5.19646102122539
S          -5.34164222990362   -6.52431079997470    5.97460903171865
C          -3.79709707328619   -7.25533293036659    5.60465445360527
Cl         -3.43110518719327   -8.83822175291560    6.08326890301802
C          -3.00826872355787   -6.37937388648534    4.92036302565495
C          -1.66601201048543   -6.38304925550147    4.32978652647996
O          -0.88225547422973   -7.30210922629363    4.27642264056804
C          -1.51515647663934   -5.02334633869035    3.72329557425476
C          -2.73084963079055   -4.25798098886569    3.95835176140558
C          -2.98523378882498   -2.95508523519502    3.62275244305689
C          -4.22080877971048   -2.34747856386147    3.93205055509278
N          -5.22166057316270   -1.84143005681376    4.17303760715606
C          -2.08753989451643   -2.08097883884217    2.97731882437052
N          -1.39875453981692   -1.31458713655330    2.47152760719015
C          -0.46926048954970   -4.63959302113062    2.94052433554713
C           0.76950025233558   -5.31817451521491    2.77281985501543
C           1.53107500762849   -5.27607189218293    1.62468799793963
C           2.67469719475822   -6.11481737462253    1.79196145200513
C           2.61099534327678   -6.61198805397522    3.17366456088748
C           1.47659409946786   -6.13358510862756    3.75067599197184
C           3.59935796114611   -7.36686499623540    3.81305163572282
N           4.43316519820037   -7.95791730246043    4.33822116268353
C           3.62934234800031   -6.43025939081199    0.85217750899317
C           4.67895740238665   -7.38079680743210    0.97767870605042
C           5.39844657332224   -7.42867152193806   -0.19757986148176
C           4.80411578543696   -6.45449933738578   -1.11110109811664
C           3.74624100929830   -5.86401425573400   -0.50520663812110
C           2.93572206321313   -4.87790487149463   -1.08019170528715
N           2.28980679016914   -4.07299010177187   -1.58351567725174
C           6.48789398054807   -8.24604282404051   -0.58804421605238
S           7.13332941517454   -8.02899770732420   -2.19218804667356
C           8.26565782940197   -9.32301737049262   -1.98044721680197
C           8.13916050727131   -9.89125633724801   -0.71357141370103
C           7.16196265964157   -9.27335361033360    0.07423094014404
C           6.83852882817666   -9.76051177630321    1.45895253593602
C           5.52468441015683  -10.50734080721239    1.41137361276920
O           4.83054202523701  -10.64688571115744    0.44702154467822
C           5.07273190449729  -11.16282116479698    2.75390431843017
F           5.58747853819316  -10.58546750862941    3.84018537627663
F           3.74718194975284  -11.14323531755030    2.86938561593242
F           5.46208461744054  -12.45174809298900    2.77811911596816
C           7.97873219910020  -10.63709638442575    2.00569831145898
C           8.35402814119635  -11.70344110189053    0.98501712969413
C           8.97152627844108  -11.04235348091152   -0.24334113058258
C           9.15615054955849   -9.71113550635131   -3.01011725714958
C           9.21734953829455   -9.11313120862084   -4.22619378419257
C          10.07623793861143   -9.50820833706717   -5.28364938732762
S          10.05540206722951   -8.63105866164699   -6.78632217072123
C          11.25386531399312   -9.66723019153483   -7.49377573854784
C          11.64097620353035  -10.65097211027755   -6.57494399844725
C          10.97942293701559  -10.55269081978965   -5.34400405553997
C          12.57734172777439  -11.67223193398803   -6.81524617147890
N          13.31486945375508  -12.53933955379158   -6.96000005396986
C          11.69764939938920   -9.41884199482804   -8.81368538733482
C          12.66591385865871  -10.12577084080478   -9.45256535451079
C          13.11011089366845   -9.82860234394503  -10.76093100080365
C          14.22277839089917  -10.34136619595302  -11.35628124797348
C          14.37207954466565  -10.27996669579191  -12.84316425647803
O          13.72039103765329   -9.60552715905026  -13.60341881312025
C          15.42934060068887  -11.25465274736251  -13.13907736457785
C          16.01942431981632  -11.78736094316413  -14.24599843896200
S          17.24493620385502  -12.94722335893042  -13.78897002291777
C          16.95102213069040  -12.69176236869732  -12.10690572845851
C          15.96655283342125  -11.77490644338991  -11.91447711257367
C          15.31359231380036  -11.11752780012037  -10.79670619018038
C          15.79702842206470  -11.09727411028721   -9.51468991445254
C          16.90762202352966  -11.88449819775177   -9.14209570901719
N          17.80717989290390  -12.52421658659230   -8.83079881347562
C          15.35030066778422  -10.23718338484822   -8.49148487250396
N          15.06287633108732   -9.51805554540477   -7.64412955118418
Cl         15.69277838800357  -11.44488115699763  -15.87229426996768
H          -5.60527524577674   -4.23925947135265    5.16793303284203
H          -0.58121344308718   -3.74525894996461    2.33834217152527
H           1.27431863133582   -4.76016904004441    0.71961118319016
H           1.17652558060188   -6.28268352371497    4.76907977726608
H           4.82477884274131   -7.96851609926816    1.85883901822716
H           5.16092850030467   -6.25725286751996   -2.10530287120701
H           6.69926059839285   -8.91848117605087    2.14790054618389
H           7.69522190737597  -11.09352874923502    2.95194505533098
H           8.84101993724981   -9.99486060018992    2.19557718469216
H           9.06704783909289  -12.40320938357171    1.42141511301435
H           7.46470981601208  -12.26759561162933    0.69615941266884
H           9.07908380093966  -11.77566384883009   -1.04447671714894
H           9.97301087630983  -10.67428443845526    0.00407198824607
H           9.81285559334836  -10.53911833696529   -2.78720458257300
H           8.56558342671353   -8.27328044612162   -4.42953532441865
H          11.16345416894566  -11.23333421289050   -4.53244970370932
H          11.24867749039955   -8.56902529929529   -9.31222173486645
H          13.11821628456505  -10.96768454953589   -8.95170003881343
H          12.48985182133999   -9.18945017088600  -11.37974386778444
H          17.51831467825114  -13.24231379440498  -11.38297968719904
