90
 SCF done       -176.522120378663          0.000828991144
C          -2.61756208947414   -4.17661615279691   -0.58806541802115
C          -3.94415737553902   -3.98182923356890   -0.35754579491786
S          -4.34976068081741   -4.32931122387844    1.28359780646576
C          -2.69661498745606   -4.74737663181261    1.67083868341967
Cl         -2.25247996928130   -5.23554137673472    3.23084298640264
C          -1.90092995504430   -4.61343907566611    0.57296363046433
C          -0.48210960921436   -4.80117578754052    0.24677940544326
O           0.40109652870227   -5.18749125027928    0.97655287522700
C          -0.38472833407558   -4.47131000858139   -1.20987462913777
C          -1.69533710003454   -4.06544499388544   -1.69915287247743
C          -2.02659728827677   -3.61056447975299   -2.94754140921022
C          -3.34885474103932   -3.23398683343561   -3.26399024962910
N          -4.41999811531610   -2.92739262587698   -3.53802461010072
C          -1.13359264360392   -3.44653929739097   -4.02471081228328
N          -0.45533071161033   -3.28393917412402   -4.93682342757668
C           0.72132419401261   -4.67393091247500   -1.96892875184255
C           2.02821093161753   -5.01211227280643   -1.47806146340805
C           2.80951059083857   -6.01014961480950   -2.08298204201073
N           4.02475137465523   -6.29190681853262   -1.68961616974180
C           4.53091502970050   -5.60502857309625   -0.66767129761368
N           3.86444025788169   -4.65617696684018   -0.00221591456715
C           2.65584566616283   -4.35680824464757   -0.40421203611535
C           5.87179420677175   -5.92933904555036   -0.22058690434330
C           6.93295147626507   -6.45868744696950   -1.03541695300774
C           7.05381368194127   -6.58704426019640   -2.42520377337738
O           6.13339337913980   -6.15616006012992   -3.34362879784198
C           6.00636889417567   -4.74794016801714   -3.45613638849300
C           7.24799806415259   -4.09927810912828   -4.05924265498092
C           8.20107020328897   -7.20964559111009   -2.89482136012701
C           9.28411835435799   -7.66540526731088   -2.09276408567717
C           9.20804516800626   -7.42631189027763   -0.70651092853961
C           8.03308079731150   -6.83929727555384   -0.23986403394733
S           7.77410352008892   -6.47999540782890    1.44881703362753
C           6.21765078017759   -5.86201020901712    1.09811914502748
O          10.11141056667035   -7.68276770774485    0.26168400210328
C          11.42565098483091   -8.12531809699146   -0.02729688916624
C          12.22335135107252   -8.06153112040640    1.26463128165285
C          10.27928507262753   -8.27442086106933   -2.90599488034375
C           9.98220071669746   -8.28373775424432   -4.24141522027464
S           8.44535661023568   -7.51863422044427   -4.58366924884712
C          10.77932178523488   -8.83910149169098   -5.28583828653041
C          10.43018773356576   -8.85322430320406   -6.58464266153059
C          11.26550857542066   -9.40905156874449   -7.62295398264917
N          10.83854374068478   -9.25688761303817   -8.88398146353156
C          11.60309224789111   -9.73316266054349   -9.84409270950619
C          12.81726992315279  -10.35832593854537   -9.59208864564764
C          13.18129696118925  -10.48278817452159   -8.24649296786268
N          12.39451704261218  -10.01900906451350   -7.27775057830055
C          14.42710822261498  -11.10655889959085   -7.84448701882226
C          14.70982311126421  -11.31362522364523   -6.54303012263953
C          15.91146268775614  -11.89457819072734   -6.06053541039653
C          16.30102240003050  -11.94586528536128   -4.75927820474516
C          17.37114002879568  -12.89944327277015   -4.32922720791562
O          18.15721480748729  -13.46995806364765   -5.04476107918482
C          17.18859748231375  -13.01215290897620   -2.87535912692239
C          17.72186557658154  -13.73745401281642   -1.85248899517146
S          16.95800309539914  -13.31400572214017   -0.33706357157560
C          15.93255329566110  -12.15653112842205   -1.10396591687266
C          16.16368035097999  -12.10613337458009   -2.44277867518113
C          15.70244178535763  -11.33904045775664   -3.58412873540911
C          14.99199453307448  -10.17077366267288   -3.50430967482967
C          14.43160448806202   -9.73396377713917   -2.28807904344377
N          13.92534445830715   -9.37518847179771   -1.32214582449541
C          14.83274756933550   -9.23419447063093   -4.54897235783930
N          14.73082961618166   -8.39226385546404   -5.32157081179142
Cl         18.95203363698366  -14.89900989881058   -1.92325882707163
H          -4.71297626078798   -3.66344883330491   -1.03317808669967
H           0.63575989081516   -4.60665817298854   -3.04700087910725
H           2.41713815427200   -6.61919811137422   -2.88718770103397
H           2.17529900537470   -3.53174738785555    0.10325667353393
H           5.79086683063703   -4.29666005745086   -2.47799428945245
H           5.14285774114063   -4.60317299611825   -4.10956549215764
H           8.10226632539398   -4.22557239076906   -3.39658259838976
H           7.07205218953737   -3.03724925816208   -4.20523465934035
H           7.47968756609331   -4.55796491409700   -5.01715565175647
H           5.58797540929985   -5.50869460115535    1.89125844039621
H          11.88499998559576   -7.47995287781119   -0.78448638554283
H          11.40114214606321   -9.15706344497583   -0.39740178657258
H          11.76121478024313   -8.69130778895320    2.01962954159871
H          12.25464219796522   -7.04089440724838    1.63563876257147
H          13.23381737988454   -8.40728891657552    1.07248724485815
H          11.18905348777285   -8.71160631524954   -2.53881875449990
H          11.72877635688458   -9.26751679942500   -4.99428692831116
H           9.49863776786047   -8.42058796603557   -6.91913871125468
H          11.23262761534923   -9.60140132067750  -10.85331344720741
H          13.44299110886757  -10.73270374615138  -10.38560860167073
H          15.12914418468669  -11.36492543323928   -8.62508848257833
H          13.94865147070298  -11.02614104580890   -5.83163159487124
H          16.55116739079989  -12.40571580606110   -6.77164104436551
H          15.22823731690721  -11.60371987884502   -0.51446150729033
