72
 SCF done       -138.390245502734          0.000914356936
C           4.30633643520726    3.47847239730546   -0.58159870842451
C           4.15844746495069    4.81793192755405   -0.38926595963157
S           5.26899927264925    5.40488501877633    0.79258812307555
C           5.95055635461016    3.81431761408160    1.03910668132147
Cl          7.20535564104023    3.55191170457396    2.14482515288308
C           5.33338194292363    2.90215514687640    0.23477848840738
C           5.43585111677050    1.46395454481549   -0.02599845841977
O           6.16358689567865    0.65907248157464    0.50576479108723
C           4.38736847383388    1.19295499290099   -1.06474599763952
C           3.70891891299224    2.44242856614927   -1.39728471722687
C           2.72215671079138    2.64634845540991   -2.32236390372477
C           2.17752151842430    3.93011299961853   -2.54376254657566
N           1.72505794471684    4.96619938691768   -2.73603640847377
C           2.14772915806560    1.65614956244013   -3.14467617054743
N           1.64563952247410    0.89507336623838   -3.84210638991747
C           4.06091738871075   -0.03989417686637   -1.51604729428371
C           4.77964505116345   -1.25636874212623   -1.23108473814250
C           4.11308267400220   -2.43968473979003   -0.88077364006116
N           4.74133782608551   -3.57013862395702   -0.66284449285146
C           6.07045209392136   -3.57277925497352   -0.75919216752054
N           6.79778255333015   -2.50989450134167   -1.10084498630767
C           6.17320650509434   -1.38573028331976   -1.34844371557724
C           6.76624744091786   -4.82628438293289   -0.51574941213450
C           6.07910249895646   -6.01690193578792   -0.25076590911753
N           6.70525925377795   -7.15836152212961   -0.07835129111207
C           8.03811954153516   -7.14668267182746   -0.15517218775846
N           8.79054582203788   -6.06673360458071   -0.37631824358459
C           8.16237054684198   -4.92574769321058   -0.55322869816368
C           8.70363465181286   -8.41535707425970   -0.00343902419084
S           7.76733954026477   -9.85159584393129    0.15429115089191
C           9.20576194093351  -10.81388855975787    0.21829743118851
C           9.12444165222025  -12.23570492714073    0.46869774141746
O          10.07058003486384  -12.97985425493308    0.56724265938654
C          10.35402928885751  -10.03264963763893    0.11977918363402
C          10.05616874071336   -8.66613204957446    0.01155981144871
C          11.71176347129652  -10.54959814804162    0.18430140124365
N          12.27357785263906  -11.38413245551840   -0.74028400443846
C          11.67817373477291  -11.82467884587632   -1.97604943172526
C          11.50765605054768  -10.67597509466886   -2.96631237410343
C          13.60007270019686  -11.72290191138778   -0.39255949817765
O          14.30552894657715  -12.43128876775746   -1.08275253331635
C          13.82906484621646  -11.03211349614776    0.85363077202165
C          12.64203277644736  -10.29358392104897    1.16199287355264
C          12.84369875257762   -9.62110196401791    2.42364979017816
O          12.13956620024469   -8.88646965537584    3.08342685473657
N          14.14745324198927  -10.00235645214965    2.80393609548263
C          14.74552575887422   -9.49013685212862    4.01195517784120
C          15.73075673527823   -8.35912787868443    3.72497502179445
C          14.73363979875943  -10.83967451445334    1.88127445702118
C          16.04819222535992  -11.39636126099587    2.04519360793366
C          16.61795607648392  -12.18359233590297    1.13155674306165
H           3.47550778642490    5.50045065139518   -0.85510982202387
H           3.17927152980706   -0.16067218385691   -2.13396641988248
H           3.03800126681135   -2.45997166896220   -0.75449033382736
H           6.78602033787949   -0.56464166468556   -1.69369251789932
H           4.99977250327513   -6.03369178578382   -0.18705298004909
H           8.77416596908591   -4.05311613035373   -0.73652944584367
H           8.08601930831104  -12.59863124202857    0.58699470897271
H          10.79157801445502   -7.88634240567152   -0.06057740034207
H          10.71777272333104  -12.30391454484058   -1.77210726352076
H          12.36462882476381  -12.57216607530253   -2.38339904576014
H          10.82842470904086   -9.92126281811540   -2.57462376741214
H          11.10369709998278  -11.05489603526690   -3.90096159784288
H          12.46873642966180  -10.20838903332676   -3.16744452585885
H          15.23383851640807  -10.30331867363812    4.55678237930949
H          13.91770112799012   -9.10944602827912    4.61731112554386
H          16.54116608749240   -8.70043381893781    3.08448538549219
H          16.15114880059718   -7.99091182454341    4.65688698766132
H          15.21820537568764   -7.53997507455830    3.22673090027742
H          16.57073298610375  -11.15495657633090    2.96052029188408
H          16.11446781567446  -12.43698656561823    0.21371778699681
H          17.60194120780813  -12.59270663232003    1.28387444767549
