75
 SCF done       -158.893561024159          0.000688706661
C           3.55400128047752   -0.39591017588093    5.11201004874971
C           3.27905818023004    0.44452983885541    6.14714123678731
S           3.97982800852347   -0.12526152122082    7.61643292371780
C           4.66330177393655   -1.52602815278265    6.82537092966458
Cl          5.56880160495345   -2.67162042206419    7.68094352611722
C           4.34519579185704   -1.52536832937835    5.49923780134631
C           4.60049731202088   -2.38549391841238    4.34120994451596
O           5.28959802888134   -3.37603112120363    4.29249613709448
C           3.89349481689983   -1.70568561275061    3.20165905357198
C           3.26419208970646   -0.48259757483244    3.69665803695284
C           2.49902074908329    0.41209754629792    3.00105033158407
C           1.93941908857412    1.54466384246408    3.63228043374437
N           1.48165705286312    2.47181853823018    4.12832958597015
C           2.17353490839781    0.33236055628889    1.63165407809672
N           1.87130613179252    0.32341864348315    0.52447374853220
C           3.96441469579423   -2.09202719795446    1.90743122398251
C           4.50392239133872   -3.34476266349524    1.42269412278846
C           4.26445954612723   -4.55026008496420    2.07438840808048
C           4.79908019881357   -5.73441856297313    1.59124103314276
N           4.41846261294523   -6.94418222742635    2.27107972682762
O           3.83553437973663   -6.84002849243893    3.32740813294088
O           4.67561594745765   -8.01160347503378    1.74403575253739
C           5.62304755381358   -5.75577974794826    0.44835311932220
C           5.80595307761582   -4.54142672340970   -0.22516907314866
C           5.24564418989962   -3.37155555089617    0.23350548856714
C           6.28316050095941   -6.96032198276879   -0.00778336607679
C           6.46650431391223   -7.26830745285804   -1.30270201222553
C           7.06918701226379   -8.48821063147913   -1.74680553939337
N           7.09796241630406   -9.63367511982716   -0.99452359448365
C           7.66288399083329  -10.60081571319266   -1.75316478459938
N           8.01527397917246  -10.15966331894290   -2.92537592416522
C           7.66447861480490   -8.84265489195113   -2.96021536348898
C           7.93313318100675   -8.02176186203597   -4.11876255421675
C           8.01193237539967   -6.63673241727997   -4.03506127290567
C           8.21838956582953   -5.86540204409273   -5.16975630090254
N           8.27760519497020   -4.44508866731837   -4.97169811145218
O           7.79172032282160   -4.00818515478599   -3.94534163478988
O           8.79928864346641   -3.75422214887625   -5.82361246592821
C           8.39040095751731   -6.45363314058305   -6.43638060525920
C           8.35366435973863   -7.85447196973956   -6.49124993558161
C           8.13032005345812   -8.61937219159271   -5.37093283229662
C           8.52953798802201   -5.68711357231151   -7.65371417215769
C           9.27371886467253   -6.08105728791312   -8.70716966360094
C           9.45156116468523   -5.32800171265362   -9.90526534770356
C           8.64504629530011   -4.41647416090480  -10.50724861049961
C           9.25676394897073   -3.51903583488283  -11.54371916161309
O          10.33671600233336   -3.66114712995614  -12.06273196652737
C           8.27315298955839   -2.44769427712235  -11.72894417943306
C           8.18488358914630   -1.27442317488158  -12.41649404048271
S           6.64138575863973   -0.50793099357637  -12.12247689549519
C           6.13014635724168   -1.78862254148605  -11.08505609321742
C           7.09381082290045   -2.74089701735716  -10.96831885112882
C           7.25993514566108   -4.02354176905994  -10.30940709209292
C           6.22255236313849   -4.76486400615578   -9.80881792987360
C           4.90816840019274   -4.25434552413773   -9.76159469174891
N           3.83635525494976   -3.84991297562473   -9.70226243366464
C           6.32072536444474   -6.09412710624526   -9.35981312830228
N           6.33889775997621   -7.18425810738028   -9.00028233251780
Cl          9.33956342117430   -0.56921105753866  -13.43491328215151
H           2.71804018400350    1.35791055745038    6.15162627874320
H           3.61795610353436   -1.41246449357727    1.13837662113110
H           3.62625781544143   -4.59634796659114    2.94291477598903
H           6.42266242210994   -4.51893794491257   -1.11040936269180
H           5.41200036217033   -2.45262068158599   -0.30830584569646
H           6.63354745510340   -7.63705457067010    0.75830685861731
H           6.10003025420427   -6.60890909435944   -2.07660678667624
H           6.68570962026494   -9.73444130856095   -0.08017012043223
H           7.80292958466090  -11.60830205962499   -1.41609265367521
H           7.95386529508932   -6.13418860232941   -3.08276927819651
H           8.44921449144696   -8.33118708314985   -7.45344633391416
H           8.09201641801694   -9.69521970467821   -5.43254521552152
H           8.04834356503134   -4.71893208408491   -7.68585224298309
H           9.88196981934615   -6.97185623693202   -8.62286323616860
H          10.41218236395006   -5.45528014194002  -10.39752873712826
H           5.16142586065165   -1.74047903779921  -10.62874430272002
