75
 SCF done       -159.901996776099          0.000590394387
C           9.40377695510032    1.84605243309610    1.44863618782168
C          10.26399169425198    2.88642869936506    1.61071094712390
S          11.23998492458103    3.11551742639451    0.20439976787671
C          10.47444527020640    1.78190884982643   -0.62452708038562
Cl         10.92562099570674    1.33909724006075   -2.19546572588276
C           9.52294095689398    1.21238006965461    0.16906054047482
C           8.56456551018556    0.11349982780321    0.07846579214706
O           8.38055006803453   -0.63533471345483   -0.86497959954431
C           7.85998463634171    0.09754630063905    1.37430731832559
C           8.36821991382273    1.17331675406903    2.21193670973418
C           7.97661307478125    1.53951960407402    3.47138680663344
C           8.58417861730812    2.62678843487787    4.13568665404455
N           9.06545014296391    3.50902290560831    4.68877537056852
C           6.96459616508734    0.93187689671581    4.24213860695315
N           6.15236610221393    0.49317311428317    4.92415342892705
C           6.88984973362962   -0.80157374204502    1.72640342560769
C           6.33335712466143   -1.85256954793725    0.97562168167440
C           5.32234861692169   -2.67606940872059    1.48296765781832
F           4.83049241308787   -2.51124665714031    2.70978110781839
C           4.87433519240975   -3.64955707337524    0.59876796567816
F           3.85589078090671   -4.46221570793010    0.86386302408220
C           5.52443053945927   -3.60172647363223   -0.63085228198023
S           6.70636491240821   -2.32940126457361   -0.65610657422063
C           5.27822919442965   -4.49811412309987   -1.70893662570706
N           5.37065208766884   -4.18865886939082   -3.04480465853079
C           5.76490630951735   -2.93630030859412   -3.64488213241720
C           7.26433721199266   -2.88744955726701   -3.92191559396880
C           4.98196001887318   -5.27118427329697   -3.85391441315548
O           4.95312121028857   -5.22369863160953   -5.06920642896959
C           4.66214291274134   -6.32394968403589   -2.92105958407464
C           4.86145851108720   -5.82108813751616   -1.61103986993746
C           4.64863569283549   -6.90996942726944   -0.67539134555390
O           4.79799657305348   -7.00624815056107    0.51912343664241
N           4.25602884059501   -7.99122454293547   -1.49849261832124
C           3.86762879553639   -9.25541660399065   -0.92195763932570
C           2.34976886287213   -9.39218092875572   -0.83111037531921
C           4.25980456391178   -7.65739815822368   -2.82824261142138
C           3.90144259996575   -8.54635858702248   -3.87308494247437
C           3.89774483588273   -8.16145457390205   -5.17711553343080
C           3.51203726793166   -8.98626424518549   -6.21382815168755
C           3.15018580509287   -9.67575675851357   -7.15609049566716
C           2.74893572739515  -10.41507160482241   -8.19333518611113
C           2.34008877693227  -11.04187646355507   -9.16112874115190
C           1.97134159695558  -11.79653911238920  -10.25063156690334
C           1.39417299525385  -11.36155033431288  -11.40537061802519
C           1.35946268274784  -12.28299185579754  -12.58246428839239
O           1.59265843955778  -13.46815571981502  -12.56908779651144
C           1.03516729771926  -11.41137855101251  -13.71697524383841
C           0.90381558381217  -11.53211238732658  -15.06789088357482
S           0.50390731354613   -9.98844619362095  -15.78474553335360
C           0.51121948631715   -9.20113524311841  -14.24844273886996
C           0.80821569055429  -10.07430294638346  -13.24954448784354
C           0.92181629826118  -10.04951693238668  -11.80180553706494
C           0.52067242614284   -9.00872343606376  -11.00702820143915
C           0.11567513949583   -7.77806257636857  -11.56717233916182
N          -0.20411024890532   -6.76943908693473  -12.01034342891763
C           0.34845835345479   -9.06301880471057   -9.61098808581416
N           0.10890551329349   -9.06329348218028   -8.48854069214994
Cl          1.07896530744949  -12.92489174721740  -16.01602041089793
H          10.39778363427068    3.53606654482994    2.45269882591665
H           6.46602652180982   -0.71682790366639    2.72123975517679
H           5.46492254894931   -2.11093688357532   -2.99632376065365
H           5.22101710550497   -2.86785023929504   -4.59187313122206
H           7.83414744380283   -2.96101823143325   -2.99922754765970
H           7.51289716045295   -1.94719065694252   -4.40454154514380
H           7.54458153956270   -3.70489314114794   -4.58168384880341
H           4.29726554283853   -9.27205681093387    0.08370148315505
H           4.30097906555241  -10.07351184977821   -1.50402598961590
H           1.94321476275709   -8.59282865808089   -0.21660660999287
H           2.09320229352213  -10.34467314757145   -0.37601002386725
H           1.89109883041503   -9.33937786629930   -1.81618103207537
H           3.60336049846651   -9.55212309648428   -3.61229536938108
H           4.18904302978147   -7.15222662666407   -5.45159645413481
H           2.23074316662908  -12.85231056507241  -10.22124016637485
H           0.30290284045652   -8.15103279624333  -14.19488095329680
