80
 SCF done       -161.029329770615          0.000641797438
C           1.76654728617285    1.10644832673516    2.67725917181551
C           1.22140472368163    2.05819840523248    3.48267753731388
S           1.91264019674628    2.00925616700351    5.06267367511445
C           2.96142339681303    0.67838134829993    4.63394228775138
Cl          4.03594679818381    0.00429966782780    5.75573496040578
C           2.76232869926307    0.31393654411033    3.33529065834770
C           3.29910189214126   -0.68835092556739    2.41036789522587
O           4.17457308484732   -1.49676496488468    2.61714961116045
C           2.56513744357500   -0.44871056513202    1.12579566714326
C           1.62430604921739    0.65036516711171    1.31019862468712
C           0.73241736955507    1.15998471448592    0.40599977581542
C          -0.13019878589664    2.22393403563079    0.74667024446914
N          -0.83583175069278    3.08961479164614    1.00757006811838
C           0.55295117903115    0.71007832164948   -0.91744467849217
N           0.35536244618735    0.38450310417143   -2.00047338334715
C           2.84453233880843   -1.07184468958466   -0.04554093539359
C           3.73588417582591   -2.18620092714876   -0.21065433238821
C           3.75505446718412   -3.31171954937060    0.62978043084538
N           4.60317412953109   -4.29601299275879    0.46992459996563
C           5.44700687358011   -4.24199071690182   -0.56377265331763
N           5.45670221681532   -3.25499530506168   -1.46221652267544
C           4.63943116058220   -2.25192289999514   -1.28833253943258
C           6.39120200256459   -5.30631683308602   -0.79187264968745
N           6.63530683494855   -6.35842997025373    0.04945351437136
C           6.09286575718553   -6.57908542792693    1.36921183813003
C           6.72561867462537   -5.65372097295478    2.40374466164176
C           7.59453839836611   -7.24120699329891   -0.49166393879102
O           7.97658270449235   -8.24935527690994    0.06423073718865
C           7.93212821036624   -6.65325055682587   -1.76779536878784
C           7.18123286309640   -5.46328601331334   -1.92390860878594
C           7.50923800032918   -4.90955245151561   -3.22412487332150
O           7.14511174082784   -3.92805757051725   -3.82308310445987
N           8.44595230329767   -5.83380276374492   -3.77105311501807
C           9.06277514714979   -5.53414166522869   -5.04089583494949
C          10.51560151552507   -5.09318384540742   -4.88369052277544
C           8.69970270005157   -6.86939502891655   -2.90876177814072
C           9.53422786264199   -8.01607435832570   -3.05260033236492
C          10.19476676452537   -8.46579688911249   -4.14121429015383
C          10.98729235687977   -9.66531641055680   -4.17612268277155
C          11.42761387660539  -10.18992588029864   -5.40342650575953
N          12.14735842175300  -11.28184559433472   -5.50012274960199
C          12.51210831190861  -11.87759929795989   -4.36498634179738
N          12.15229115967784  -11.47046868361471   -3.14374850362528
C          11.39657748646870  -10.40200577534262   -3.05157248527589
C          13.29693098710839  -13.08646760568089   -4.48732474947575
C          14.13551225031202  -13.62212038215469   -3.57861443799533
C          14.55668494464643  -15.05997468246948   -3.72044087353779
O          14.43643218366376  -15.74789251579135   -4.70211638920081
C          15.07498290633830  -15.41274780686544   -2.39518964629886
C          15.52771674927354  -16.53415709480752   -1.76467342829170
S          15.99289739300985  -16.16571857465388   -0.12117292944106
C          15.58170362371181  -14.50026290376340   -0.30782994953447
C          15.10724323334058  -14.24828659793122   -1.55710775637999
C          14.65557042686737  -13.10121802888587   -2.32009073384630
C          14.89110149053978  -11.79941179794876   -1.98455606751939
C          15.47659960950761  -11.45545183956719   -0.74685166071263
N          15.94459822849803  -11.16365754281068    0.25879307530976
C          14.67765081351388  -10.69072001229802   -2.82911459643322
N          14.59137457102086   -9.75031246477098   -3.48112205992340
Cl         15.66036497925715  -18.10204583397264   -2.38970195543011
H           0.46654834148951    2.78630402051569    3.26118772455169
H           2.39751861687188   -0.69920297015973   -0.95925993428367
H           3.03380428730185   -3.43125408707178    1.42610893381769
H           4.71083560659871   -1.44918627627839   -2.01026376184750
H           6.32110959017585   -7.62087376383396    1.61184434257827
H           5.01258617726712   -6.42948494645843    1.34286779419606
H           7.80736317472799   -5.76480311227310    2.39819915041990
H           6.35457763901718   -5.90718461689444    3.39238968135507
H           6.47236088402131   -4.61781282015628    2.19520579604186
H           8.47560310380119   -4.71041218176119   -5.45951316988035
H           8.97317614356652   -6.39205276573232   -5.71254655415664
H          10.56336159335974   -4.19606282437849   -4.27140713846412
H          10.93803317307804   -4.86868821847025   -5.85914147043750
H          11.11761565725824   -5.86566195530679   -4.41053999203949
H           9.57267184565572   -8.59535209485769   -2.13892107412260
H          10.13670014682755   -7.94508921578558   -5.08522758550896
H          11.16833397168297   -9.71039633646094   -6.34001445703566
H          11.12533425024101  -10.11013162742247   -2.04570712389029
H          13.13666558671698  -13.64759191145603   -5.40078969600767
H          15.70950733537106  -13.82948540914324    0.51845546507657
