93
 SCF done       -192.371921520891          0.000533573093
C          -0.75903916102779   -0.52179521093965   -1.43761175590105
C          -1.70319470145959    0.07031564625449   -2.21829263275774
S          -3.29174445203309   -0.41681219599601   -1.75212085111989
C          -2.67419751828433   -1.45121231006048   -0.48491988518876
Cl         -3.70837352025192   -2.34378079291200    0.51191138456042
C          -1.31381150030492   -1.39241501070329   -0.44395944661459
C          -0.23992818215528   -2.00293891543672    0.34313409624232
O          -0.32089231136701   -2.91237675137423    1.13275641732969
C           1.01625424699040   -1.36668671742940   -0.17991119636558
C           0.68447539693200   -0.51961547527525   -1.31291867485504
C           1.53740296009157    0.20190820076645   -2.10717531059338
C           1.05591762776981    1.00787560148912   -3.16021386617791
N           0.68392554583407    1.66499585768500   -4.02397460847190
C           2.94084058206732    0.22653304618307   -1.99262137315971
N           4.08694585040744    0.28478520922807   -1.94993603073726
C           2.26488696486387   -1.64917398869485    0.28025760179394
C           2.53043951326537   -2.27223703474809    1.52701098607338
O           3.69935414521174   -2.94541099682722    1.70163047504039
C           1.85145826414735   -2.26733496726996    2.73165958828024
C           0.68574496404794   -1.70238292442273    3.43598941709183
O          -0.16406179014061   -0.93651312680221    3.06706780849168
N           0.81281629088163   -2.20883634003772    4.72080012272933
C           1.95236731905533   -2.98495297945744    4.95625062073760
O           2.23935571133385   -3.47908072684818    6.01003320821579
C           2.63311848852054   -2.99383547162696    3.65265075449067
C           3.77223862669093   -3.41286702146283    2.97772261074667
C           4.87984217523092   -4.18698905806031    3.39953180314100
C           5.93530452533355   -4.43940485013773    2.57862985526348
C           7.04499045920786   -5.23215044150519    2.95416674014614
N           8.13724529003921   -5.45554425162187    2.14335392073764
C           8.38492512622672   -4.86642571019926    0.85015038148821
C           8.84370823580154   -3.41469622259817    0.96406396659126
C           9.08118523748248   -6.30672545642199    2.74979011861071
O          10.12151251900741   -6.64644872629998    2.22445019669814
C           8.49167807477207   -6.62251570423002    4.03022193717408
C           7.25376231199332   -5.94952755887024    4.13025002761481
C           6.67314447481951   -6.30427911905627    5.40714676209587
O           5.63017162285826   -5.98719906423359    5.93628152023153
N           7.61028172845218   -7.18463555246872    5.99736031900473
C           7.35959247642363   -7.67779294691095    7.33291817472859
C           8.16974305379010   -6.92308964977411    8.38267984567238
C           8.69858309345375   -7.37848524096782    5.18377970941836
C           9.85036996962422   -8.19891765467641    5.34805899692933
C          10.16628535262740   -9.02459801850625    6.36820835735096
C          11.34872862267737   -9.84203507966802    6.41463954107603
C          12.42638216870357   -9.75361768827345    5.57074757436340
S          13.66977863604445  -10.86660817973375    5.95161002556048
C          12.77560609131272  -11.48503554268463    7.26448990571310
C          11.56302336600146  -10.86463434863714    7.40846950386189
C          10.60390629715908  -11.21773916463775    8.44847477902479
O           9.46021379540362  -10.84252701427551    8.53192133692036
O          11.16237288717129  -12.05214381464510    9.37984421454724
C          10.38403854328255  -12.36666771709150   10.43919559951410
C          10.86193761225519  -12.92496045474498   11.55860260604897
C          10.03318840090050  -13.21548407759759   12.68711069956137
C           8.87881860862148  -12.62443029088144   13.08434196094791
C           8.03457149813383  -13.34878930631541   14.09384435740073
O           8.37684194930729  -14.29127448681406   14.76473167126483
C           6.72832060794882  -12.68748210181927   14.02339636821267
C           5.48709285988192  -12.85846807479280   14.56070349552921
S           4.39147777970630  -11.63029241748759   13.97213037036983
C           5.62557664750430  -10.89445796944148   13.01743776966910
C           6.80525151103335  -11.56068121108099   13.14053580765301
C           8.16603675791689  -11.42732751314091   12.65365911252743
C           8.65606913377519  -10.28031214698921   12.09096920086442
C           7.81920222262122   -9.19278961844480   11.76459402588312
N           7.17088285090412   -8.29894615806897   11.45274500765180
C          10.00548010864376  -10.01177499162746   11.79062010529720
N          11.08421242399586   -9.70694830495608   11.54335870555889
Cl          4.97353135248755  -14.05185611498466   15.64673590699361
H          -1.58156385110634    0.75643166000069   -3.03288655028701
H           3.13793273550117   -1.38878512473090   -0.30392847842861
H           0.14335530104841   -2.00595542037726    5.44979260490488
H           4.84208913984282   -4.57295484593648    4.40892181246511
H           5.92859861719738   -4.01968460919856    1.58231200154402
H           7.48590908423094   -4.94305330785073    0.23204572943820
H           9.17726428358615   -5.46708514273809    0.39441346486504
H           8.08875225037046   -2.80346550860334    1.45352865321654
H           9.03348493940783   -3.00986901344644   -0.02601807142813
H           9.76186287975105   -3.36072305231340    1.54382590444182
H           7.54843997357013   -8.75225310156350    7.37812069578377
H           6.29429545082295   -7.50495890535149    7.51311757706540
H           9.23896821774958   -7.03819425838543    8.21916502376454
H           7.92192423866141   -7.30049773093048    9.37115776425967
H           7.92450741608469   -5.86441083095254    8.34616729292639
H          10.51424380153369   -8.12997760353039    4.49579197779000
H           9.51618013021997   -9.13461232779147    7.21872615493024
H          12.56333393825220   -9.07910406673812    4.74964577122615
H          13.17320384901254  -12.27822360224408    7.86545341101829
H           9.32973441012561  -12.14539209468734   10.30684426332821
H          11.90217616911680  -13.21024979120166   11.61259853976121
H          10.34555633750587  -14.05151417211565   13.30556228577756
H           5.38916286459488  -10.03182273707102   12.42655042521432
