76
 SCF done       -158.371392317372          0.000353903711
C           0.29817329610183    1.24577400838699   -2.97425779576438
C          -0.17608386699792    2.48487148611202   -2.67202387183688
S           0.88404714345991    3.31080456207680   -1.58978883328619
C           1.99456196932136    1.96111474481391   -1.54210889677240
Cl          3.40622789564102    2.00914093242537   -0.60972624864624
C           1.53942905725126    0.94395375679452   -2.32737691027097
C           1.98750401373314   -0.40353069045167   -2.69351475943529
O           3.01107011042700   -0.95304277889250   -2.36407893311769
C           0.93681779591096   -0.90388690984052   -3.64089739780783
C          -0.10130469537665    0.10873770083569   -3.77685534632056
C          -1.27897940629703    0.01805656188842   -4.47038183232306
C          -2.20136346338897    1.08606155495137   -4.49000995198347
N          -2.95793583250337    1.94775920656496   -4.52033686250243
C          -1.71737592122944   -1.10027436939512   -5.20718999102177
N          -2.13500939455753   -1.97868683204969   -5.81725575339972
C           1.03124411674508   -2.03106842264324   -4.39856063408986
C           1.95358447853822   -3.10326950359129   -4.24788261373065
C           2.56860522784192   -3.57612671140879   -3.11360444048800
C           3.39024342707850   -4.69552457432018   -3.45986332876486
C           3.22723905057592   -4.89095369541837   -4.91171615826847
C           2.34717216782846   -3.96018734885029   -5.36169543365893
C           3.84648513201024   -5.87081241468355   -5.69614636308719
N           4.34790007781264   -6.66418808115143   -6.35845187392484
C           4.18419412006444   -5.42918112399089   -2.61524261269299
C           5.09637631804323   -6.46750928530429   -2.96779176641462
C           5.72143845073920   -6.92561421794297   -1.83060598323800
C           5.18914814660321   -6.18283119470248   -0.68974036227142
C           4.28067237405195   -5.28653614055108   -1.14680003240156
C           3.53376234693007   -4.41957073478344   -0.33769065461612
N           2.92129379434603   -3.73924835251451    0.35508717730559
C           6.71785883928706   -7.93250608133423   -1.78425748935064
S           7.25727144046449   -8.64715775099640   -3.28753752465188
C           8.40144058651046   -9.69736437345946   -2.49432327126695
C           8.35334175245251   -9.48330742740179   -1.12415643846828
C           7.41480340283504   -8.50133502705986   -0.72624696196869
C           7.44644637291782   -8.33488623578955    0.73515003136964
O           6.79787422518087   -7.58587491237252    1.42201981830303
C           8.48910329834179   -9.31093202874151    1.24854443977259
C           9.10842833865301   -9.97968045531233    0.03336990332876
O          10.05017715459109  -10.73017763959383    0.04782045250548
C           9.19534464550572  -10.58754779746330   -3.26260694377771
C           9.98222776018078  -11.62678654049942   -2.81807910893553
C          10.62475313567101  -12.22936747111795   -3.94209766868110
C          10.17378918166163  -11.48004697603038   -5.12736467662056
C           9.30346404505561  -10.52309067955813   -4.71242098541734
C          10.53569842813955  -11.71820269118507   -6.45874230931039
N          10.81520120444639  -11.88597308515057   -7.55991144751788
C          11.49873675110467  -13.28898727636077   -3.93013009173401
C          12.27732648834034  -13.78414448127155   -5.01323360349089
C          13.05989290560401  -14.82030811671930   -4.56167768601033
C          12.76074345403645  -15.03784328858659   -3.14911131646723
C          11.83497796830465  -14.13010286647871   -2.75691698375769
C          11.24557087585884  -14.08616207463639   -1.48674746825012
N          10.76843707300941  -14.11990842418802   -0.44308563299854
C          14.00960451203369  -15.57716247234096   -5.29305045957757
S          14.91823098230626  -16.87193592512343   -4.55170927787785
C          15.74388242948206  -17.20298894100263   -6.00118350678410
C          15.36109290157849  -16.37145913853289   -7.02569620555717
C          14.36430701807476  -15.43266263467027   -6.62955313934094
O          13.81811685546540  -14.50620410424719   -7.42590226259068
C          15.87597458152891  -16.40929209051759   -8.33385866897456
N          16.25357858945157  -16.38526657255447   -9.41623887034499
H          -1.06848536231925    2.97343598300333   -3.00963290177122
H           0.35256392084259   -2.13645522281571   -5.23788343264742
H           2.45699861458856   -3.19457476147551   -2.11953279171736
H           2.00273378150661   -3.84016542068547   -6.37262580911947
H           5.27225684694171   -6.81446060397430   -3.96765667903228
H           5.48410849868256   -6.34117631880654    0.33034396987029
H           8.02392894387786  -10.05883352355870    1.89563502634052
H           9.24254524219152   -8.80476995199488    1.85555188515087
H          10.12479238037930  -11.92216743349694   -1.79762137825061
H           8.78203936129903   -9.81721122085411   -5.33287560360028
H          12.27244662841488  -13.38685074008412   -6.00743032204186
H          13.20855131942346  -15.80462589635079   -2.54366306001211
H          16.47309817318398  -17.98788020428438   -6.04706859426141
H          14.17467651939553  -14.55937023782722   -8.32402649031600
