80
 SCF done       -176.828138642968          0.000871675466
C           5.45385315470688    2.90276763365545   -1.45776062727169
C           5.69525493478268    4.21210950306584   -1.73733992444103
S           7.38623699634190    4.55694803059922   -1.70031417130898
C           7.78498079977673    2.90179531374320   -1.30280775549724
Cl          9.38569443290770    2.40076824385713   -1.07890920496097
C           6.64902192933188    2.15256531350888   -1.20948104512874
C           6.30449938269827    0.76265874787729   -0.92064947397076
O           7.05998453403380   -0.15781874770984   -0.68056478431805
C           4.82710719932846    0.70262748752069   -0.99067662162424
C           4.30998615987363    2.02051826860653   -1.33193000043436
C           3.00799244302486    2.40811598764409   -1.51269101000875
C           2.68089881074398    3.73992265710651   -1.84671161344329
N           2.39757865441571    4.81789443852955   -2.11713343430853
C           1.87639974051231    1.57732001277426   -1.39881600928348
N           0.92360417090969    0.94102293106212   -1.31604037255506
C           4.05844892965316   -0.40556720075367   -0.76024008431595
C           4.42703496708748   -1.71533997722530   -0.39945852451023
S           6.04592830003080   -2.29281099136538   -0.14972848474852
C           5.46073445951683   -3.86955570074921    0.27996951581653
C           4.06586262746349   -3.93887905315729    0.23365919254655
C           3.48846587527337   -2.73654324652279   -0.16203370442932
C           2.00844318291603   -2.54899160100832   -0.29811223796123
C           1.26562059390121   -3.88984057612416   -0.27467186595602
C          -0.23109465586748   -3.61944750860442   -0.14351681020971
F          -0.65219862438523   -2.73339694366748   -1.05518070560186
F          -0.97508778049918   -4.71707498386667   -0.31431983497068
F          -0.54526265872529   -3.11611802333960    1.06007920319461
C           1.78910954346902   -4.74442032317027    0.89012223423500
C           1.03027490186823   -5.96310941841255    1.08264613608382
N           0.48818015708697   -6.95466776534765    1.24294896566473
C           3.24931330555480   -5.13558027166979    0.61005466563235
C           6.42337662159205   -4.86351630040673    0.60880999855142
C           7.74843932282702   -4.60633408378671    0.88212250782940
C           8.43169452514195   -5.83081443924680    1.13222938826123
C           7.41587589869026   -6.89528987748340    0.98220700546947
C           6.23100248212025   -6.31046968122468    0.67654053008855
C           7.61077344597454   -8.27433057168275    1.12587596439684
N           7.73112806735551   -9.41053440884124    1.24076735612960
C           9.75877733640892   -6.00547962337001    1.43277668960502
C          10.44887055510941   -7.24733269795151    1.63676496125531
C          11.76938066740067   -6.97383724180606    1.86951635597847
C          11.96984893321392   -5.53497311614087    1.83613960055210
C          10.77295833457849   -4.94557425600371    1.58027960787826
C          10.55965673651568   -3.56325112567609    1.50077604611850
N          10.41758487800883   -2.42488881434830    1.45312089056515
C          12.82479061528682   -7.89921660616423    2.09899314521819
O          12.62675231665576   -9.23274133056027    2.15080624440511
C          13.87243937442128   -9.71446036028964    2.34424986149649
N          14.74676508895352   -8.73805353037806    2.42511347865774
N          14.09100303261491   -7.60165532305170    2.27881723867196
C          14.11039889936341  -11.10558339067796    2.54690473571744
C          15.30465747349699  -11.72918662370556    2.46648346217796
C          15.48315984069463  -13.07552172172424    3.11759870040012
O          14.60402812513260  -13.80769270185827    3.49431413515058
C          16.93601132893290  -13.22454730363034    3.22618278566212
C          17.81010720866696  -14.11641386398106    3.77718747897717
S          19.45760000475218  -13.60988087676678    3.49505990223935
C          18.94991634475846  -12.20713922516756    2.62754403978729
C          17.59375409546782  -12.13130772130670    2.56775016231954
C          16.59474675755411  -11.26684502026975    1.97068269495159
C          16.82788716190827  -10.36452609141430    0.97352449611512
C          18.13963096062901  -10.07039902183828    0.54266611628453
N          19.20379705812675   -9.82656868991573    0.19208692650386
C          15.81812563795988   -9.74124334128776    0.21075906638834
N          15.03462264006000   -9.28213699839512   -0.49033360915692
Cl         17.45422183039391  -15.53504187961450    4.62851168004340
H           5.00337379435408    4.99985243692917   -1.96071512602832
H           2.98967740138106   -0.26528527688834   -0.84989201407214
H           1.77079523955025   -2.02619906419312   -1.22769776549296
H           1.64383427702765   -1.92351714849505    0.52508759690194
H           1.40919027301337   -4.42551329904137   -1.21954563047302
H           1.72879640802604   -4.15834866913577    1.81587263160473
H           3.26762289422808   -5.86746320274625   -0.20487472957852
H           3.66743331275833   -5.61066426696637    1.49975974987459
H           8.20281081477421   -3.63543800255223    0.91089543135607
H           5.31562675427099   -6.83416498382691    0.48153514663106
H           9.99818979204777   -8.21935563599697    1.59555462148913
H          12.91834950076831   -5.05876137215131    1.99299409505131
H          13.25952616875997  -11.68773765441149    2.88076191013042
H          19.68506329993285  -11.53428823650173    2.23258282614464
