91
 SCF done       -185.495367600224          0.000353691809
C           2.27263037099381   -1.11183205469778   -5.41604644334507
C           1.87544631348029   -0.72337302410275   -6.65716235503283
S           2.88745762915117   -1.40460510055890   -7.87891649909449
C           3.86867793041534   -2.23613748315468   -6.69774434518776
Cl          5.18020315952401   -3.20256196835938   -7.15740611647286
C           3.41397316226316   -1.97832791458814   -5.43692791868341
C           3.77061872239545   -2.35066470671241   -4.07242929074893
O           4.66749927231447   -3.09175854071427   -3.71254968663804
C           2.81773146633190   -1.62492478946492   -3.20438792121576
C           1.86044483198402   -0.91050375818008   -4.03981416473115
C           0.74870525388735   -0.21337344155419   -3.65510306072438
C          -0.07485010270975    0.42538011284023   -4.60803761868804
N          -0.74778479896537    0.95262638295596   -5.37235150264049
C           0.27051279202031   -0.07558912523842   -2.33504122121409
N          -0.18597643283793    0.05225571099508   -1.29026001220731
C           2.88498703093341   -1.55676133602050   -1.84128841470174
C           3.77295766137051   -2.20140785931886   -0.95440002096504
S           4.95448943533691   -3.41550979574823   -1.34681149797079
C           5.41260369524861   -3.58217768683150    0.31660592700014
C           4.71298698835546   -2.69755275267542    1.14159779628371
C           3.78277752144002   -1.92767790577859    0.42198065968861
C           2.97144054160617   -0.94496077834805    1.02083124829067
N           2.32660028634024   -0.13044370984851    1.50363574140791
C           5.01960617500830   -2.46933324665630    2.49765675717813
N           5.32975440604917   -2.20962798401181    3.56945140139740
C           6.35341520018366   -4.53479903981401    0.79769396477887
N           7.47783686347146   -4.97540670948119    0.15254869486570
C           7.96165325231629   -4.58960666541664   -1.15210661121369
C           7.46583093344486   -5.53527152483079   -2.24191349232589
C           8.20953379938229   -5.88272561901296    0.95099420540734
O           9.25952807672913   -6.37772489646781    0.60044928018001
C           7.42456273621514   -6.01508240962553    2.15852403756080
C           6.29411261800479   -5.17763147079962    2.03125941763238
C           5.43628699190559   -5.39242812501694    3.18184396988190
O           4.32800253242023   -4.99219202585345    3.45203155499393
N           6.16307544120936   -6.29641156321731    3.97973017187491
C           5.68446245166456   -6.66839725040280    5.28983328273727
C           6.36493949425121   -5.85044387644398    6.38422388385096
C           7.34132985514819   -6.68106315995632    3.38885151757077
C           8.24889170556230   -7.59378822625613    3.96795485711636
C           9.38839307001761   -8.00540559374117    3.33967563325723
C          10.31267744671629   -8.92379902975191    3.88632581356836
C          11.42834014216610   -9.42119617007879    3.24070595122070
C          12.10508049856882  -10.33143611075577    4.09953974693000
C          11.33181542350397  -10.35342936392866    5.35878775116383
C          10.27009721795433   -9.52187246278895    5.21820002547094
C          11.62420870380359  -11.08127549641611    6.51888592730376
N          11.83087619504098  -11.65082014711458    7.49443193295137
C          13.22892004318559  -11.07540459099079    3.82522837087443
C          13.86762680253429  -12.02957564954606    4.67483797377506
C          14.88770132514778  -12.63817340809313    3.98217510471222
C          14.96220201763614  -12.02286299960994    2.66259415914273
C          13.99023851522113  -11.07881625433746    2.56600705685330
C          13.78692619995861  -10.25772016447249    1.45051545361591
N          13.66209369389265   -9.59951422445497    0.51804443876788
C          15.75929106493213  -13.64802472133402    4.47440763262404
C          16.43467569228904  -14.58055815712155    3.75350215346183
C          17.62183565154533  -15.27448541787878    4.35009995418470
O          17.95147717589447  -15.26282144380917    5.51007193973154
C          18.28908814490419  -15.89719814786492    3.19988186077081
C          19.43641509345407  -16.59476182328627    2.96473697388790
S          19.55607490657232  -17.02531796086896    1.27428325907050
C          18.04896284569613  -16.26797709651766    0.90751855264274
C          17.49649623164080  -15.71223178500597    2.01825995552927
C          16.28007953543168  -15.00778691886050    2.37496676849371
C          15.14016200922432  -14.97292301759734    1.61567987066624
C          15.12256780631991  -15.47947480147274    0.29936703040679
N          15.11024181387809  -15.87471733676738   -0.77737695667407
C          13.88140125825953  -14.54358379283871    2.08293566448479
N          12.82226039692888  -14.27595374225328    2.43519751115989
Cl         20.63764590724283  -17.03599467433638    4.07369329743968
H           1.06371621084599   -0.08447202351246   -6.94348755940246
H           2.17517771825866   -0.90722979940377   -1.33932028668311
H           9.05344787068204   -4.63782922520994   -1.10316053193811
H           7.65676009439507   -3.56185857537827   -1.36236629269671
H           7.80312700048201   -6.54753004717485   -2.03374452287631
H           7.86699203355268   -5.22358083924261   -3.20151556857649
H           6.38032782767197   -5.52795609632536   -2.30419800060293
H           5.83161973185171   -7.74056151028807    5.44552342231226
H           4.61166835831381   -6.45708559087169    5.28917540887994
H           7.44149641975533   -6.00823177668237    6.38038562507943
H           5.97165500475078   -6.13593696060280    7.35571945828777
H           6.17013095469876   -4.79245692889206    6.22708454331630
H           8.00549914831868   -7.97975744096732    4.94682042770896
H           9.61646194999847   -7.62545119644838    2.35210948944361
H          11.73155616737552   -9.17351198946992    2.24224851496750
H           9.52678257765830   -9.32689595163892    5.96844467158897
H          13.55357156164018  -12.27471889052621    5.67032088601243
H          15.70731150856734  -12.24183664752844    1.91959819554029
H          15.95930887149011  -13.63958401658831    5.54125382487520
H          17.68369089631765  -16.27869667213599   -0.10033268825178
