72
 SCF done       -147.079538874692          0.000871185187
C           0.11715369305592    0.21893336633161   -0.15948151400385
C          -1.15454993222897    0.69567801016226   -0.08659792492498
S          -2.28328398233465   -0.57806771368040    0.20070454793213
C          -1.01450097209923   -1.78194617073116    0.22394144037582
Cl         -1.36228807405519   -3.42119411227385    0.47596903398855
C           0.20002790114660   -1.20131016064637    0.01868553123608
C           1.60199705081479   -1.63085854515034   -0.07198074450221
O           2.06021681084832   -2.74543941490539    0.02765520909954
C           2.36272329019430   -0.37171805562430   -0.32006177251549
C           1.44926276181333    0.75275432215309   -0.37145759744019
C           1.74065230059615    2.07696375565487   -0.57103317060454
C           0.72855106567019    3.05904059672860   -0.58606392950244
N          -0.08291925492719    3.87008525339897   -0.59553160239997
C           3.03088401781545    2.60311291526105   -0.77615759054798
N           4.06111453744518    3.07926520186407   -0.94890921784215
C           3.72034342602940   -0.35805807684286   -0.46352024420427
C           4.49306402298303   -1.49383099595752   -0.37420265951573
C           5.23359099501320   -2.46342169152416   -0.28558532189741
C           6.00206076849771   -3.54641169570545   -0.15874734605799
C           6.69586696381680   -4.54278609736183   -0.02187580548767
C           7.48766202974510   -5.65711060209008    0.16420185414254
N           6.97750126917354   -6.90103125513462    0.46435047721831
C           5.57398465903812   -7.22489911388151    0.54233433697663
C           4.94310568165949   -7.33163088812316   -0.84295864716790
C           7.99393901469939   -7.84583150617838    0.64852759891126
O           7.79236949720732   -9.01362018862336    0.92886363154340
C           9.21690823382905   -7.10106001610101    0.44261960518712
C           8.87264410803890   -5.75946175929197    0.13896420456805
C          10.09579885928066   -5.01030103258264   -0.06366826299520
O          10.31195214330493   -3.85500107396182   -0.34821767456354
N          11.11516937244912   -5.96919435640237    0.13655573596953
C          12.50776474590594   -5.59699795534206    0.07289199133280
C          13.10595797644326   -5.38522219237877    1.46173147641489
C          10.60753581772655   -7.20605580381622    0.44904870291714
C          11.40919366926670   -8.34085893798691    0.73526144969499
C          10.87055871327339   -9.53764412916244    1.08393966334902
C          11.63925652904709  -10.63172256394512    1.42816919746966
C          12.31790638749135  -11.58610542335887    1.77830199502326
C          13.07368510079995  -12.60802746063545    2.18958000975991
C          13.78185584528228  -13.50214625432290    2.63152685781810
C          14.53306680553032  -14.56680908717855    3.07537000211936
C          14.76442935632880  -14.93851852844839    4.36357276194195
C          15.34924809971945  -16.28974764709521    4.62744816344234
O          15.85703330097448  -17.01946558339516    3.81007777361991
C          15.11473665897156  -16.51403795890642    6.05783698788786
C          15.30744972806468  -17.51770917928721    6.95927596027342
S          14.73187675194350  -17.03998771569276    8.53964392460052
C          14.24601036480429  -15.48719708231344    7.96401128471479
C          14.50741300253414  -15.35037508030068    6.63654435994308
C          14.38298068038490  -14.32104961664056    5.61997319464757
C          14.08736253346276  -13.00864502564097    5.87442230015083
C          13.70126155766935  -12.58652384372525    7.16516570899873
N          13.37383287130030  -12.22859741420342    8.20461717020894
C          14.23350731591591  -11.93999780149128    4.97008040462334
N          14.40325542425656  -11.01313946771060    4.31463223475298
Cl         15.99471967314064  -19.04319910383491    6.69593062726908
H          -1.51082898986574    1.70229626833810   -0.18054917350455
H           4.24886791945633    0.56866123172113   -0.65250762852480
H           5.06270500655428   -6.45695336443315    1.13079301311013
H           5.50813859233579   -8.18497257549771    1.06117630719770
H           5.01395165547739   -6.38198149095854   -1.36904032436655
H           3.89423798631842   -7.59679730363982   -0.74771059718692
H           5.44580716896946   -8.09855101792478   -1.42792095515205
H          12.54242971711051   -4.65789177235486   -0.48680275035122
H          13.06531070690978   -6.35778271936738   -0.48072929442826
H          12.56487229376394   -4.59875817718098    1.98209274113744
H          14.14684117378975   -5.08791904413655    1.37051577448290
H          13.05328279014665   -6.29434774422017    2.05672514041729
H          12.48386666903818   -8.23453432396792    0.69307846402304
H           9.79322546058187   -9.66743951432777    1.13071733981058
H          14.93411091539380  -15.22944524253901    2.31183279543113
H          13.79650976498294  -14.79122125172139    8.64416276388942
