87
 SCF done       -177.228125221436          0.000951027015
C          -1.19989275215890    0.06037158473437   -0.82217588377793
C          -2.52776288660159    0.32452682050822   -0.95793677122847
S          -3.47601060543339   -1.09354997613439   -0.69809886238194
C          -2.05576137408603   -2.06789978230733   -0.40089512880890
Cl         -2.17627981994283   -3.71807457235746   -0.03966705074344
C          -0.92756557934157   -1.30916981822876   -0.50196369385849
C           0.51706253391697   -1.51661323680348   -0.36822814591022
O           1.09867449966026   -2.55077419659470   -0.13189844223467
C           1.11935387978379   -0.17391881230721   -0.65038810389978
C           0.05152550025520    0.78451200095285   -0.90807346960226
C           0.16218567194570    2.12688343819125   -1.15080433228749
C          -0.97823008035877    2.92841465687802   -1.37193941428261
N          -1.89506460940066    3.59268322798687   -1.55653863556674
C           1.36695521218543    2.85623193232335   -1.19877320247912
N           2.31374148389105    3.50363055369247   -1.24292926269642
C           2.44948538331774    0.05311622860083   -0.79083418574521
C           3.48389303335801   -0.90066609409426   -0.50601184926675
C           4.57975744831297   -1.08161102830831   -1.37152045808844
N           5.49945974914013   -1.98466686540569   -1.16506908279128
C           5.37588441889199   -2.77894429594640   -0.09812926005246
N           4.43015042750444   -2.62479585492421    0.83220100951526
C           3.52356444331667   -1.69932768146414    0.64946517698604
C           6.35297875603801   -3.82907962617149    0.01988683837105
N           6.40890428438539   -4.76664254383356    1.01692246319169
C           5.49489333192686   -4.94325744160944    2.12043812984764
C           4.20632072109599   -5.63317199502348    1.68334309521272
C           7.48391082280688   -5.66072263825070    0.82689110866168
O           7.74232850454976   -6.57805191618214    1.57786430941091
C           8.11529033745709   -5.19660955548145   -0.38634368535920
C           7.40244289957767   -4.06927144829169   -0.85937534817080
C           8.05084904479665   -3.62422741583895   -2.07941488846433
O           7.82928380287503   -2.73186520977701   -2.86007772664288
N           9.13144083789140   -4.53494888147445   -2.25097033689274
C          10.01753030734017   -4.37026166128269   -3.37709453020549
C          11.28698843798911   -3.61059708813281   -2.99724785272230
C           9.17541364624610   -5.46908123125062   -1.24788132617262
C          10.05681705215899   -6.56502991352223   -1.04745535328059
C          11.17573553649827   -6.91263480434697   -1.72454742398789
C          11.94212606597401   -8.07235972068200   -1.43114008558896
S          11.47835089494232   -9.25750902265004   -0.23851807107871
C          12.83579518070960  -10.22866620141595   -0.61019786755672
C          13.64453354514622   -9.67653355244987   -1.56417557801612
C          14.92125568595714  -10.30975858411729   -1.99549569349370
O          15.02694779995069  -11.47064578895895   -2.28078437050880
O          15.99016756005241   -9.49750860752285   -2.01412557177348
C          13.12242213385826   -8.44537965313743   -2.04609459372745
S          13.88104339085813   -7.53252776812198   -3.36349397638037
C          14.07234722898770   -8.91968869269992   -4.44008473922407
C          15.25991160269181   -9.30706387754541   -4.90990897671028
C          15.39493119496161  -10.53327322876378   -5.64505989429402
C          16.29918041723643  -11.52316264775286   -5.47952898039232
C          16.00871399649965  -12.81659308563141   -6.19256476328055
O          15.24299418269900  -12.95709160756538   -7.11479874829966
C          16.80779935878268  -13.81591157250383   -5.48797665589155
C          16.97011414581459  -15.16919374314515   -5.51742784389713
S          18.09564511404201  -15.67462427433502   -4.28187825788811
C          18.33860127424487  -14.05250149167691   -3.74780540710465
C          17.59510293720278  -13.17580829433235   -4.47566263797540
C          17.39185452788211  -11.73859156688605   -4.53495585928109
C          18.18008089220315  -10.84733927820669   -3.86353378307602
C          19.16806391365213  -11.28194040452264   -2.95099156949906
N          19.97742705815789  -11.59670586432613   -2.20205380564530
C          18.20227450545588   -9.44867932006406   -4.00330212055564
N          18.30348151538455   -8.30825473769067   -4.09295449661302
Cl         16.23574346779213  -16.28659692323209   -6.55639677523457
H          -3.01728133463455    1.24822464809642   -1.19478923179122
H           2.78476314656824    1.00233684493014   -1.19046920512278
H           4.68617312609473   -0.49132542410162   -2.27212085130809
H           2.82383847721771   -1.55107810738259    1.46027410611377
H           5.26985302289834   -3.97042060849053    2.55943994851085
H           6.02302622931086   -5.56903442680675    2.84568166839631
H           3.65620526581938   -5.00630262689408    0.98674671281513
H           3.58057687973783   -5.81730405657266    2.55178834031691
H           4.43198249580087   -6.58470739669374    1.20755012760108
H           9.45837994442007   -3.78399605965455   -4.11284233748882
H          10.24492733509765   -5.34694184823782   -3.81047761004352
H          11.02787313787094   -2.60481857255043   -2.67691192815411
H          11.94775230222964   -3.54202728040115   -3.85697774986333
H          11.81677911660544   -4.10336032744760   -2.18503335281773
H           9.75656360331163   -7.18468070908738   -0.20962323754597
H          11.57001730618146   -6.31827798961358   -2.53455103675917
H          13.00180385064102  -11.14980441762723   -0.08770046909094
H          15.77875651681581   -8.57194978395149   -1.81766757598611
H          13.16209839148350   -9.47735946881252   -4.60528701618677
H          16.14054939324818   -8.73510284548941   -4.66418072693655
H          14.59484808549777  -10.77006468788329   -6.34119096675579
H          19.00334981462657  -13.86795020392220   -2.92784490861975
