71
 SCF done       -148.493394515919          0.000508153323
C           4.15578652936275    1.90243408268182   -7.06809586121086
C           3.72096612536505    2.87417103704303   -7.91540150050832
S           3.68914426406266    2.31092261142610   -9.54595697624480
C           4.27648476661404    0.73194765453062   -9.08068694342358
Cl          4.53277632705151   -0.48714761797442  -10.22818072106365
C           4.47552193821797    0.67492741749953   -7.73325666731233
C           4.94346327587540   -0.32157933696387   -6.76301030138097
O           5.29300574496290   -1.45658555030148   -6.98525851997911
C           4.82312233670002    0.36396378868509   -5.43435514197702
C           4.41098263788821    1.74891429130717   -5.65178292721245
C           4.34416992458470    2.75401852597669   -4.72813886487410
C           3.93406162310135    4.05472842323031   -5.09253989646619
N           3.59582717549824    5.11308799664638   -5.37736491963074
C           4.70482032453420    2.64510087711598   -3.36844641521145
N           5.01393750244669    2.63845980351937   -2.26349412024606
C           4.86693553949216   -0.24728268549876   -4.22707648848410
C           5.29730570881982   -1.59646812804804   -3.93938945147025
C           4.60366928298946   -2.31826404082136   -2.96826998893908
C           4.98200253263620   -3.60882076540657   -2.64285063982957
N           4.09640187725089   -4.33601462907015   -1.77550670562934
O           3.49270728688358   -3.70121214134157   -0.93314076211006
O           3.95586448128425   -5.52760900179820   -1.95607298481632
C           6.12533618789244   -4.20320389392017   -3.20899743716778
C           6.79489657174308   -3.47278769118558   -4.19583049815026
C           6.39624803650634   -2.20590210407069   -4.55900883201782
C           6.66898286071136   -5.46014566796652   -2.73639019649377
C           6.70215614984748   -5.77655924644566   -1.43162572790088
C           7.23915285205758   -6.99095877577407   -0.89163747427087
C           8.03033264052479   -7.96289598383418   -1.53961589570137
C           8.72536160323820   -8.54131394457135   -2.75093133564340
C           9.22975959369870   -9.68125453507705   -1.81122933588455
C           8.47834895363738   -8.96097936629320   -0.72934543357983
S           7.97804305342253   -8.79952280318800    0.90178805706687
C           7.11270371955811   -7.34126384733893    0.45741597748721
C           6.35653684365772   -6.62151958463494    1.44118265396845
C           6.79492949594794   -6.43277365498956    2.76158186355700
N           6.17385019442748   -5.64716226167369    3.60690604681975
C           5.10147063067029   -4.98618000462968    3.16287383210924
N           4.51891301299796   -5.20966426886975    1.98520239848575
C           5.10903129270157   -6.03733275392785    1.15717399267723
C           4.49545124496948   -4.05049873014258    4.08093265762306
C           3.69925200873089   -2.99378680160943    3.81909608306465
C           2.92323779383510   -2.39604993589216    4.96354514964955
O           3.10161490166032   -2.61295891952538    6.13583583240472
C           1.90883596075845   -1.55877453268571    4.31913410692629
C           0.82766709123756   -0.82098386106817    4.70116061282390
S           0.06776385297951   -0.08591530497900    3.31018308895452
C           1.22637487178194   -0.77391364098687    2.23188629867753
C           2.13610901987813   -1.52841421192867    2.90385571616090
C           3.31958029439643   -2.30801258521483    2.58867596850804
C           4.00810287009403   -2.18877002682879    1.41710211808816
C           3.56136585088153   -1.33828883958001    0.38010795999791
N           3.24933408303398   -0.63492634607743   -0.47101556148642
C           5.24004360561132   -2.78505471203959    1.09018703720132
N           6.25690306070553   -3.17925324378217    0.72946812647845
Cl          0.22170971007657   -0.58729987325834    6.26493559640243
H           3.41180103027985    3.87741339897361   -7.69888481114436
H           4.50012687315403    0.29597722625740   -3.36322136133181
H           3.73537422496254   -1.89045600958888   -2.48737264725000
H           7.66978132958175   -3.90832660508278   -4.65409422208063
H           6.96282257360965   -1.66203936591483   -5.29632257131860
H           7.11000927644282   -6.11473274873116   -3.47431302871698
H           6.34550639149760   -5.05778382359227   -0.70399948653213
H           9.51433783579353   -7.91818161756346   -3.16655010876348
H           8.05711381529125   -8.87384990221656   -3.54243653842612
H          10.30892774545049   -9.72123130825799   -1.67478361248709
H           8.85600460567625  -10.67494460707547   -2.05085414774111
H           7.68553571716307   -6.92898368697618    3.12740453942821
H           4.57618571619959   -6.26731984611806    0.24292695796887
H           4.67336964790821   -4.26875855078299    5.12870471058299
H           1.14562609873711   -0.58300321688852    1.18054968157583
