92
 SCF done       -169.719106611038          0.000657112706
C           6.01765490042112   -0.66375554324736   -6.75327407971055
C           6.46196527506519    0.19223510823560   -7.71219583882260
S           6.88788898199608    1.72126097614074   -7.03312129610666
C           6.44709401226976    1.19996306711212   -5.42234767410417
Cl          6.60438266292879    2.22828613126472   -4.08876501835227
C           6.00877447111136   -0.08766738371684   -5.44128552258772
C           5.49931219314421   -1.06555720269727   -4.47367155828674
O           5.12370771241453   -0.86779809883361   -3.34345494234703
C           5.34448948200670   -2.32837154377403   -5.26943698530823
C           5.55915961712984   -2.03669672974297   -6.67079600658431
C           5.43283001527751   -2.88653166909932   -7.74286767312170
C           5.71905402995865   -2.46211529572923   -9.05564932973978
N           5.94457345325232   -2.13434741442991  -10.13216687080624
C           5.01405000365653   -4.22737665102586   -7.66933751931515
N           4.68020769256430   -5.32702406142612   -7.65983768646174
C           4.98890152182929   -3.53289371456448   -4.73301319777813
C           5.16047704919172   -3.85865569259623   -3.36768395310271
N           4.47493504538877   -4.85167412036735   -2.70939277956785
C           3.38591894222617   -5.63461089970346   -3.24390080240116
C           3.88470340922513   -6.86442611962258   -3.99925909363295
C           4.93707705372117   -5.02557378622386   -1.39684153521434
O           4.46521608666587   -5.82832999991370   -0.61478902970700
C           6.02346579903840   -4.07558331654973   -1.27112166662477
C           6.12752291258836   -3.37354239412972   -2.49045216425685
C           7.27589392750771   -2.49219507134051   -2.41198424767110
O           7.79454799643541   -1.75347030291262   -3.22246958857126
N           7.76025871571392   -2.67991293459342   -1.10730736371885
C           8.91781116510763   -1.96229994625614   -0.63261703792109
C          10.17985313016813   -2.82169182637531   -0.66715372029105
C           7.03416724155642   -3.62426295231453   -0.41459159573390
C           7.32462690020653   -4.01091161032132    0.90974010632036
C           6.61120069370436   -4.97455689500621    1.56145360210603
C           6.84597092765149   -5.45904152824257    2.86482314345422
S           5.85132376106965   -6.80012526179770    3.41180528213041
C           6.67382248870569   -6.89064610094362    4.92208225806653
C           7.64022751063247   -5.95239228489865    5.00762508393728
C           7.76309337501359   -5.11603073010215    3.86427784624606
C           8.76909374738726   -4.11364253095166    3.98420993273213
C           9.47531883560915   -4.11873947987554    5.14484636521030
S           8.87565659605838   -5.45752138127192    6.20761765688166
O           8.26257078706341   -4.94347482371983    7.40037476302896
O           9.86861767998867   -6.48485023685761    6.36329918209286
C          10.51680219201125   -3.27379070924891    5.56112792706920
C          11.15802613230396   -3.43815419116766    6.74892777492511
C          12.21124235287748   -2.61564583642197    7.20563649509807
C          12.93576571381525   -2.76402039223615    8.37540568032296
C          13.91921899986556   -1.79450369876461    8.53988873165418
C          13.97418936217947   -0.87780695721192    7.50668433863148
S          12.77898276748804   -1.23140578254643    6.30761594669350
C          14.86366367372494    0.25245985711833    7.37170205781610
C          14.82587420084363    1.06073281266522    6.22091804910472
O          13.93189542222052    0.74365434132656    5.21621996001628
C          14.51652010991949    0.23903456854241    4.03032938639450
C          15.65493125767281    2.17976997327275    6.11099401938538
C          16.55520401653702    2.47063937173762    7.13371480452389
C          16.62225404135258    1.66733222988029    8.26460101220412
C          15.76710292960709    0.57642839101826    8.38154700790095
O          17.46604730067145    1.86758523279623    9.31139100297646
C          18.35693167010438    2.95662953192594    9.26095014270769
C          15.53081228329490    3.06193256475303    4.94963245497883
C          16.51477270266650    3.77563490243531    4.42057427259385
H           6.57068341322578    0.03744891002995   -8.76731297413904
H           4.61299054345627   -4.31303084429516   -5.38045153859454
H           2.77480940215388   -5.00101817557166   -3.89180057024744
H           2.78604607269821   -5.95401851730548   -2.38693138213031
H           4.48674133521147   -6.58629520068074   -4.86117145518097
H           3.03613606977093   -7.44670474747610   -4.34690844703694
H           4.48544422725595   -7.48487403949117   -3.33876443797966
H           8.72631671800354   -1.58626879161661    0.37663107386314
H           9.03915753975308   -1.10912214466617   -1.30594213397520
H          10.07031927616812   -3.70748802500673   -0.04517059041590
H          11.02856417291321   -2.24461820700668   -0.31000179093662
H          10.38136242272671   -3.14025173815654   -1.68677073103467
H           8.15267072411342   -3.52387262086781    1.39630558301692
H           5.79211969641052   -5.44681291817040    1.03198895344662
H           6.39403827233104   -7.62730820123962    5.64829103562448
H           8.95939893619930   -3.38485162018762    3.21422914970569
H          10.81336344237969   -2.46778110127654    4.89912157441926
H          10.85742970668895   -4.25291183374169    7.39417880635082
H          12.74948500502707   -3.55693550045459    9.07760987250081
H          14.57510454504207   -1.76510967839015    9.39039347687770
H          15.24759422395439    0.93770569016994    3.61450603103124
H          13.69773820336511    0.10094724743733    3.32698345376255
H          15.00523206903557   -0.72372935635723    4.21344182443672
H          17.16925075221366    3.35073999682515    7.03814723422757
H          15.82327773236852   -0.00764781563031    9.28411276334901
H          18.93045544557005    2.90917751030988   10.18506004141515
H          17.82333149826780    3.91124198487940    9.21585483980531
H          19.03892487380008    2.87824981214259    8.40825607448071
H          14.53827231163702    3.10390139867502    4.51868973259451
H          17.52252276664917    3.73615623711610    4.79948153177989
H          16.35138366973683    4.41762833258649    3.57228248955005
