81
 SCF done       -162.940914970938          0.000633257803
C           0.21824768913733   -0.46904072755182    1.18368865765260
C          -0.99170433177589   -0.09265891804181    1.67828477221707
S          -1.43130947236610   -1.04758913166753    3.04675584808821
C           0.04758620809237   -1.97689327062321    2.95305500515039
Cl          0.37837788707594   -3.21856646709256    4.05715461182516
C           0.81599610977892   -1.54906907921538    1.91306232344740
C           2.11238175584488   -1.89327431349651    1.31504687039790
O           2.90159852833834   -2.74404110796302    1.65442728583579
C           2.25547069932867   -0.95104350961779    0.16632194687049
C           1.09905854518908   -0.07858160215285    0.09944986365102
C           0.84773656630209    0.93269503836141   -0.79042335258946
C          -0.33548883729152    1.69724014912282   -0.72062566318057
N          -1.29330582629286    2.32721610379232   -0.67632941760716
C           1.70386202392260    1.32291515567691   -1.83857040691853
N           2.36926989699888    1.67805270016502   -2.70410440894250
C           3.33751837829085   -0.97853486483071   -0.66477094442594
C           4.38125109353971   -1.86197115985857   -0.50037227145528
C           5.33582997432858   -2.62079747932103   -0.40642897413899
C           6.34939919146748   -3.47537805452625   -0.25635574193732
C           7.26650896479466   -4.26843003237667   -0.10576652114760
C           8.30438080066152   -5.16366890480485    0.05228319612006
N           8.48793053184976   -5.91243014230445    1.19126400007625
C           7.62266709502725   -5.89616629709987    2.34579071747572
C           6.32019401011055   -6.64771132048014    2.08792737596465
C           9.61414137849382   -6.74146251734085    1.09026921509085
O           9.98687172184492   -7.48416952338827    1.97785251650440
C          10.14790169564762   -6.46142254519574   -0.22706975027671
C           9.32359344445037   -5.48334892957492   -0.83710041395845
C           9.85099042220708   -5.19620220182331   -2.15454375273622
O           9.49551815682578   -4.44791851481201   -3.03575760082010
N          10.97870730066874   -6.04089104667586   -2.25525217198584
C          11.82279357799074   -6.01038546863755   -3.42451287661792
C          13.08636282424910   -5.18518728609946   -3.19176950827751
C          11.16821148315865   -6.79294515172701   -1.11984594799457
C          12.22252065712448   -7.72581845256173   -0.96394239988054
C          12.39525186714566   -8.45263551853623    0.17154272798716
C          13.43902456033409   -9.39240587600997    0.37090650071937
S          13.54269896717209  -10.24745458485522    1.88483882255047
C          14.96354547252088  -11.10060717198763    1.37615648752494
C          15.32726284884057  -10.72923515921802    0.07054226065473
C          14.46282226257713   -9.77333535320022   -0.47647233727989
C          16.47211378834933  -11.25466817597021   -0.66351830030028
O          17.28327104726579  -12.05186413114113   -0.26281818644880
C          15.62448086619359  -12.04090083146652    2.19551972406795
C          15.23097376056207  -12.37309240746811    3.45483353954465
C          15.92469322787643  -13.32737254145654    4.22900093211768
C          15.56439940052587  -13.85058783625258    5.43593708403510
C          16.60375776419444  -14.54166764621164    6.26148285835422
O          17.69708531858140  -14.89446116110980    5.89059561399264
C          16.00661418707294  -14.63215279222358    7.59948366174105
C          16.38590641804784  -15.04839801128135    8.83992075803118
S          15.08311017220753  -14.82715964367826    9.98495080234871
C          14.03903834945610  -14.18429809558224    8.76914278717603
C          14.66080710454724  -14.13832061380188    7.56124808113752
C          14.33291464432996  -13.76484198641818    6.19587240966912
C          13.05518889206264  -13.57342185461480    5.73737020052151
C          11.95761223557119  -13.56000652080968    6.62402891096497
N          11.05888118505697  -13.52882907413094    7.33632705126269
C          12.67168151785067  -13.48204403309923    4.38455692743653
N          12.29045117524309  -13.44951757056515    3.30231089454175
Cl         17.87528580715099  -15.70112145608298    9.31435253792619
H          -1.65716769191116    0.67570373073344    1.33787092740624
H           3.41276188448025   -0.29563484993926   -1.50245424958144
H           7.41066170316943   -4.85754425600225    2.61765877285541
H           8.18111106805212   -6.37698200305868    3.15341363319891
H           5.75846625528049   -6.17689219187039    1.28413145444973
H           5.71018512054065   -6.63867734517184    2.98639570476525
H           6.52834353728128   -7.68041985508982    1.81777125770691
H          11.22492167737599   -5.54721612119988   -4.21456687806136
H          12.07129521055183   -7.03203877565639   -3.72588857530377
H          12.81840892154301   -4.16121752071032   -2.94376924677425
H          13.69162250097157   -5.17601909952367   -4.09393896951277
H          13.67783577065083   -5.59435955286083   -2.37530738142836
H          12.90264048743390   -7.85078545524971   -1.79329388864201
H          11.70429937266654   -8.31956777961731    0.99409964542264
H          14.58968785387022   -9.37394001047898   -1.46678968516114
H          16.54629360706356  -10.83779667822922   -1.68673504981416
H          16.48278875572809  -12.52902566898739    1.75137447090522
H          14.37291274673200  -11.87389815476968    3.88404620453164
H          16.89689994922653  -13.64312690107611    3.86392059264223
H          13.04681828383140  -13.87989259003495    9.03694642867111
