84
 SCF done       -167.316378535666          0.000520454491
C           4.51337478113825    3.58001499055611    1.07781057774472
C           4.21981766381494    4.87560289150022    1.36842867624702
S           5.15223752090303    5.44267202372019    2.70651853622407
C           5.95830243596462    3.90163307882060    2.88074845743287
Cl          7.12184065543654    3.64474965064006    4.08456381538770
C           5.50912263779506    3.02109045034261    1.94263765396822
C           5.76402690375145    1.63117201660787    1.56144334590930
O           6.54254825672018    0.85334917529186    2.07946617111386
C           4.86826163413296    1.36912703965089    0.41572329751293
C           4.10009721583918    2.56951279191961    0.12188483242967
C           3.15863959584995    2.77030372247365   -0.85272450779871
C           2.50891982717205    4.01499194580483   -0.99453708124530
N           1.97138394957555    5.02017061433999   -1.12477719593545
C           2.72327280460371    1.82339299781502   -1.80072982759178
N           2.32068506873701    1.10349132657349   -2.59953607835725
C           4.76572437388205    0.18196627109845   -0.25800071167485
C           5.45428263453828   -1.03182839612095   -0.07469049225870
S           6.71516081198433   -1.37545499264484    1.08005700347200
C           6.88406730816410   -3.00084239029504    0.49399632864147
C           5.96493666483582   -3.27726927659966   -0.53214670572745
C           5.19247142796770   -2.15864627534616   -0.84585745740640
C           5.67992554968121   -4.57391392797009   -1.15207308972670
O           5.03896204858079   -4.70975346084332   -2.16193115761696
C           7.91528225130048   -3.77859960950991    1.07754862629979
C           8.47080544905316   -4.89789851766923    0.54150355355597
C           9.51413448525819   -5.71422705754621    1.04393160383761
N          10.26801628002550   -5.61704843384179    2.19433094421876
C          10.16040302119844   -4.66771237102492    3.27640362186046
C           8.97339523282167   -4.97282945425537    4.18709798768595
C          11.22002783111761   -6.65218746251387    2.28125816673724
O          12.00006157760195   -6.76421470560341    3.20762008748476
C          11.02446150036203   -7.43608554349712    1.08415953828183
C           9.97687995314481   -6.83489681606139    0.35429032355294
C           9.75150709663342   -7.61119903861043   -0.84561718661303
O           8.96470219889021   -7.48958941718365   -1.75836240444169
N          10.69488522175234   -8.65574086374275   -0.75540733489908
C          10.82990003335300   -9.62774425605678   -1.81291923260668
C          12.01223248667910   -9.31319373772458   -2.72627423047999
C          11.46397934393780   -8.56168272327482    0.38058850785179
C          12.48543569973287   -9.47889429069011    0.71961828118552
C          13.27052349683633   -9.31387873971858    1.81905770528846
C          14.31312402050208  -10.18901648474218    2.20332017005045
C          14.70387636116496  -11.41078172653790    1.66937203619327
C          15.76851112025257  -11.98924687112169    2.34035998872308
C          16.26225076237213  -11.20987468995286    3.37813854246590
S          15.32111864254014   -9.75727623646248    3.54914190810249
C          17.31260624777164  -11.56714808896732    4.25813422384842
C          18.08371834874432  -10.77030776899489    5.04576722225964
C          18.78424496272440  -11.36929399106025    6.22493410696756
O          18.93629523850285  -12.54567017206126    6.44960390891337
C          19.17315849369520  -10.21084783424443    7.03945086810620
C          19.74453423035595   -9.98689511772291    8.25613771799571
S          19.89259983284047   -8.27109943432538    8.55781364445716
C          19.19408472789462   -7.87672658009640    7.02852719148686
C          18.85938759445328   -8.99863436792728    6.33936148587626
C          18.31121524882489   -9.33752202908212    5.03963432243546
C          18.29265568263899   -8.49518971041256    3.95949103404882
C          18.62987897321155   -7.13227917884684    4.08384555790572
N          18.89377888937399   -6.01958043055190    4.17527383793708
C          18.04866019943092   -8.91657212324010    2.63790365632390
N          17.90901478664681   -9.23877939360312    1.54493443834081
Cl         20.27305164447935  -11.12897440138188    9.39016876956322
H           3.52394920217009    5.53991920697938    0.89592143299707
H           4.04771436671031    0.13989611367572   -1.06878236924266
H           4.43655016279055   -2.18079654562162   -1.61202831809859
H           6.05373555335892   -5.44819017417347   -0.58945531939624
H           8.29934535759970   -3.36345473044379    1.99694299211804
H           8.12224684130574   -5.24119618723048   -0.42360819026417
H          10.11257287842949   -3.65225714051050    2.87622772892656
H          11.08811071374478   -4.76869601766264    3.84837528955943
H           8.03877169966960   -4.97990732980327    3.63088184613533
H           8.90966004666056   -4.22363281669012    4.97130769312932
H           9.10584424416354   -5.94820144572896    4.64893068530071
H           9.90033147698625   -9.57801791781360   -2.38698942287545
H          10.92356558729671  -10.62862078482459   -1.38186235868918
H          11.87610995730182   -8.33674499817064   -3.18432007462371
H          12.07761213707645  -10.05905148719132   -3.51347323306848
H          12.94690928378959   -9.30616126680860   -2.16960749157223
H          12.64095403443635  -10.32421813868612    0.06613234763300
H          13.11290472880323   -8.44830630654475    2.44969783704294
H          14.21477351035369  -11.86661093624011    0.82808534861577
H          16.20928884145720  -12.93337229692762    2.07381605993308
H          17.47747691028369  -12.63407718725401    4.38039644085590
H          19.07045152648779   -6.84810421628225    6.75353349343841
