83
 SCF done       -175.547397920525          0.000514492504
C           0.14249058793176    0.61065093232616    0.00150914818923
C          -1.16399378253950    0.98761953554606    0.03961608629920
S          -2.20882629815078   -0.38490192502951    0.08773299258110
C          -0.85725792652352   -1.49455352248096    0.05474370432450
Cl         -1.09406172078600   -3.17188464375071    0.07955401254339
C           0.32053305544893   -0.81187539843583    0.01036895245353
C           1.75277087851320   -1.13269583374796   -0.03170951105224
O           2.28494739235620   -2.21828628187728   -0.04051625760969
C           2.43256774735990    0.19635931444824   -0.06574330284702
C           1.44116050051646    1.25492288956126   -0.04678403533987
C           1.64402727675147    2.60987764410546   -0.06793667803866
C           0.56331536947484    3.51596933347265   -0.04290347080018
N          -0.30513365569043    4.26537058883825   -0.02319606760495
C           2.90202971235027    3.24155866791081   -0.11569182964840
N           3.90433956458123    3.79991379678364   -0.15518515954959
C           3.79141464081765    0.31672239603487   -0.10841269877396
C           4.62910445474780   -0.77692143421044   -0.11515535126699
C           5.40535913976674   -1.72173214466881   -0.11765752119172
C           6.17178444548849   -2.81430708792222   -0.11878546184045
C           6.84315137974534   -3.83471342555596   -0.12390954591777
C           7.54771931459666   -5.02205905975454   -0.13202626124501
N           6.93185672829542   -6.24166550881147    0.01315460342763
C           5.51115444350676   -6.44701482803785    0.15749836877069
C           4.77996036051744   -6.30255153840072   -1.17392714944036
C           7.85495567581558   -7.30410547753875   -0.05189700848727
O           7.54600798983172   -8.47177086143275    0.01752837148370
C           9.13309746747081   -6.63945366479139   -0.21991735744819
C           8.91353353918992   -5.24283843779875   -0.27818127909952
C          10.19446720586866   -4.60108874755950   -0.47761728608103
O          10.52172458931430   -3.44110248636436   -0.58133976034569
N          11.11632892684846   -5.67763721997261   -0.55035227407426
C          12.52924968182359   -5.39183863612767   -0.62859610041508
C          13.26112897532481   -5.73804631457587    0.66445799675151
C          10.49101763314864   -6.89211951176829   -0.38748094277890
C          11.02430638183863   -8.21015288115655   -0.39192579939593
C          12.21794349267628   -8.64172609716123   -0.86401362913070
C          12.63100414375248  -10.00450537470891   -0.85638303494447
C          12.16674353480818  -11.07533071928377   -0.10184498706729
C          11.26162135445504  -10.93710388565049    0.96464928006413
N          10.57340936743335  -10.81840547761123    1.87378716418767
C          12.80951058122544  -12.29677021309435   -0.44187562983472
C          13.76423290713813  -12.11001516203610   -1.43640217679597
S          13.90202410536354  -10.48304312461279   -1.96518684869248
S          14.60661204000983  -13.54364376083087   -1.93374938120845
C          13.65893371029821  -14.42790695632535   -0.78933684148247
C          12.74393445614589  -13.66981290172947   -0.05869772414566
C          11.99981619441205  -14.48791179902438    0.82531741404665
C          10.96962998606027  -14.07221579565045    1.68869282268502
N          10.10510297733678  -13.79767602313839    2.38821482283366
C          12.38889223550830  -15.82274547432121    0.78040942845392
S          13.64640631097923  -16.10005791134808   -0.40746026531093
C          11.77437289560217  -16.87878643093362    1.50549066722161
C          12.26083621578911  -18.10819257663277    1.80578648744746
C          11.29513100924338  -19.20605421043853    2.15086659167704
O          10.12944588228256  -19.07475173487542    2.42491713112554
C          12.08501331168708  -20.43403375230568    2.00572437678583
C          11.86268828920583  -21.77816245181193    2.06125187071625
S          13.34747183251033  -22.65533783900351    1.77469999261020
C          14.25270707780245  -21.19671293413049    1.59609648834757
C          13.45569699006241  -20.10491491704492    1.73930261661657
C          13.60328379662679  -18.66250103694308    1.75617031890425
C          14.78499309930480  -18.00160703576264    1.95856653691875
C          16.01837826732515  -18.68557918131368    1.96561027927080
N          17.02643393023416  -19.23223384419761    1.94993936567536
C          14.88078291527254  -16.62684926531220    2.25240571524289
N          14.98575238127970  -15.51761501805080    2.52784745033960
Cl         10.40416155309504  -22.58398001363116    2.35988125191962
H          -1.58888296184191    1.97176244460520    0.04343116301858
H           4.26423166415865    1.29081347397069   -0.13868663763466
H           5.11866123829821   -5.72765578521056    0.88219717254790
H           5.38670679882683   -7.46142789869980    0.54563868666225
H           4.90447674382741   -5.29806273356131   -1.57250252721836
H           3.71964876340044   -6.48680943842014   -1.02901684746615
H           5.16473006168788   -7.02100612928742   -1.89407320385672
H          12.59447780851674   -4.31424570662628   -0.81016828384095
H          12.97175307098862   -5.90727326474884   -1.48548411444836
H          12.84161247257304   -5.16969191151174    1.49083252069433
H          14.31304309025268   -5.48373343953866    0.56833369441037
H          13.17586662387934   -6.79721274961640    0.89612367476540
H          10.31858681583584   -8.93963581839197   -0.01555845851956
H          12.90411142965858   -7.96522602856029   -1.35154140696098
H          10.74283209567269  -16.69989623455924    1.79896057498232
H          15.30311576408336  -21.24847408840326    1.38836031190583
