92
 SCF done       -197.395633954700          0.000930935214
C          -0.05185352543071   -2.01968905476096   -2.48844081436805
C          -0.99011940463102   -1.95047243912037   -3.47196409315952
S          -0.66697295404643   -3.09329944062561   -4.72295560692751
C           0.75739436115576   -3.68884349567030   -3.90504559690974
Cl          1.70950088793385   -4.91959945618187   -4.56495810736171
C           0.95025306337656   -3.01393014251780   -2.73561184046463
C           1.91575863867362   -3.03693985427857   -1.63972543116220
O           2.78957583220552   -3.84403025422955   -1.42921098237078
C           1.48321705894980   -1.91657146075038   -0.73215168103493
C           0.24020697692610   -1.35034565071187   -1.23811707426444
C          -0.50638558559114   -0.33926672469464   -0.69652168376297
C          -1.68229833591693    0.12383183391573   -1.32572355889199
N          -2.64170138996625    0.51122523217392   -1.82005970525168
C          -0.21862212192988    0.33792105326539    0.50533849773478
N          -0.03280827395666    0.92118032588649    1.47639095163695
C           2.12192770020538   -1.57906037731000    0.41597089093937
C           3.44573643934363   -1.99936918652511    0.73537457197996
S           3.94771942091683   -2.32385827959793    2.37548646159169
C           5.58460948343390   -2.72858670289368    1.90822187877632
C           5.71472802402986   -2.56202441825363    0.53376535125311
C           4.52668558802759   -2.16084672132831   -0.10453860512704
C           4.83016242520938   -1.94456654000444   -1.52561167492504
O           4.15369751202323   -1.53429196399664   -2.41878027401525
O           6.15819571818900   -2.27172022835242   -1.68834250305874
C           6.74460498875648   -2.66017885149488   -0.50269302315964
O           7.89329353562961   -2.99144218209248   -0.44308588886680
C           6.49156442367205   -3.18330724519840    2.89169285550727
C           7.76557384102991   -3.57431865143411    2.61165497088533
C           8.62336070483113   -4.12394932319276    3.59200395262882
N           9.88948278144910   -4.58404013333088    3.31986787906431
C          10.55280226396033   -4.57503359314821    2.03610512501314
C          10.09089471547898   -5.72736198136245    1.14881431513183
C          10.48923723314067   -5.16812192243801    4.44570877331499
O          11.60287386530850   -5.65378570132338    4.44440499865230
C           9.49998838041042   -5.02387878811419    5.49532737891845
C           8.37739367460191   -4.36586879168698    4.94633254880472
C           7.38804072011638   -4.22135564049049    5.99627647933447
O           6.28265016675086   -3.71824053043638    6.00218718631173
N           7.98576994005888   -4.81080031867764    7.12092150183719
C           7.28023627552026   -4.91259194712687    8.37804856984187
C           6.60409952137281   -6.27061666696083    8.54250680802414
C           9.23049228723860   -5.31729302757077    6.83536862690347
C          10.00465396461165   -6.05396767419809    7.76167003221784
C          11.20281761152240   -6.60848043627344    7.42934050855157
C          11.93484195482055   -7.46416747959388    8.28348328570672
S          13.41672556239255   -8.18390715555050    7.70026821257894
C          13.65614622197106   -9.14442094750738    9.13966629333936
C          12.62970911711536   -8.87782427776796   10.03246242410091
C          11.67785533268931   -7.94882914763661    9.55942212671482
C          10.65532427418448   -7.80603582357859   10.59522776112900
O           9.66345967603108   -7.13695305875819   10.64077510875373
O          11.02439343958046   -8.63325497813024   11.63365518778520
C          12.19098579431891   -9.30732223894906   11.36328433300577
O          12.67319395324710  -10.07459815449069   12.14572990957472
C          14.72566026753843  -10.07465119633753    9.18772344746809
C          14.88580314279773  -10.96802656234850   10.19391797320451
C          15.86104496375485  -11.99832668598800   10.18645639859580
C          15.79892369175696  -13.12627069713459   10.94111627568961
C          17.01399989646465  -13.98054599830880   11.13318535281811
O          18.03562481193309  -13.92749062518482   10.49340090183945
C          16.67934755347373  -14.82520312900238   12.28518364486453
C          17.30701062193749  -15.75429179464332   13.06095055823154
S          16.22836372909278  -16.34429463847136   14.30306688979998
C          14.93879197681441  -15.33749085577347   13.75334643169183
C          15.32069816199896  -14.59019375759549   12.68388973783716
C          14.71936645878097  -13.63372935628159   11.77292128382642
C          13.37252967989103  -13.43825276002550   11.62687941486163
C          12.44923435018793  -14.04959655580671   12.50350183918983
N          11.69339276434394  -14.53861404567790   13.21371314166815
C          12.74996707038704  -12.74508218262683   10.56855531186313
N          12.18362547689063  -12.25872265136421    9.69656735956869
Cl         18.89490859979670  -16.32689989869855   12.92650998220264
H          -1.84691108280184   -1.31107120223877   -3.55167787201687
H           1.63212485734062   -0.94948253530785    1.14786933435228
H           6.11659958786839   -3.24220721380617    3.90568372759166
H           8.13717855723669   -3.49676401313637    1.60082943992126
H          11.62064026971772   -4.67973284969544    2.24694651110522
H          10.37842383935495   -3.61704889874740    1.54144875237559
H          10.27730769490549   -6.67830086681942    1.64231154152979
H          10.64018957009305   -5.70579630179590    0.21240357325821
H           9.02967786676698   -5.64722090745134    0.92731638833956
H           6.52225762955714   -4.12458197765873    8.36458747007377
H           7.97348891000402   -4.72762163816614    9.20133481506948
H           5.90509935741234   -6.44227742341145    7.72737813361828
H           6.05864422330081   -6.29208728831939    9.48112066299312
H           7.33803590271630   -7.07242295357897    8.55299842653051
H           9.59859575097817   -6.21047433621538    8.74964848049383
H          11.62375365802004   -6.43668529981555    6.44655317564279
H          15.37044985556514  -10.10951031902847    8.31937365955120
H          14.22799418473141  -10.91555497278793   11.04926747651275
H          16.74312567684635  -11.87811537448447    9.56710000444053
H          13.99631671138645  -15.36185962089438   14.26343274108531
