81
 SCF done       -169.753710234560          0.000746945135
C           4.54642454839625    2.83915439911047    1.46674467891890
C           4.43614398237513    4.15532669415930    1.79551269286235
S           3.87682011547386    5.08738214679153    0.45590149481595
C           3.78398446147364    3.67469458358745   -0.57137406127413
Cl          3.27397109510275    3.78559854183445   -2.18205048273866
C           4.17544630792573    2.56313835215033    0.11192552099932
C           4.30382367934649    1.12546037563970   -0.16838073866554
O           3.99403527047408    0.54723229824671   -1.17821588081256
C           4.79982387646774    0.53964051741795    1.12340544578151
C           4.94578656394213    1.60280291417549    2.10698766806977
C           5.41962941110679    1.51025060305866    3.38925251432043
C           5.51602550391099    2.64879948982898    4.21784501813709
N           5.59468274789468    3.56173064010641    4.90820766348535
C           5.86779027100802    0.33623784258660    4.02663921456731
N           6.25607276162075   -0.57716898011565    4.60372795847599
C           4.95274904943777   -0.78800199516213    1.38525319394137
C           4.93351868154160   -1.84429791247037    0.44596000103365
N           5.13668915601424   -1.77366305042579   -0.83259438418067
C           5.04883722306791   -2.95878414650983   -1.41341309470467
C           4.76137716465460   -4.05271044379221   -0.55305587239432
S           4.63118551940089   -3.50973498762854    1.06236889373083
N           4.64580498150096   -5.23786085583710   -1.13339542540424
C           4.83834037427474   -5.14087869640528   -2.42537518606239
S           5.19419529199416   -3.50343469521551   -3.03311661416946
C           4.77065807757903   -6.21062338412375   -3.34849819350967
N           4.47959924794119   -7.51860388836555   -3.05717459515218
C           4.12909501554444   -8.06502318020452   -1.76764904721671
C           2.67321594812389   -7.77906952115464   -1.41409982764633
C           4.48268798905857   -8.31883218990500   -4.21593210280114
O           4.24797426508764   -9.51001931998165   -4.20872728634895
C           4.82033486941792   -7.40544501789282   -5.28834178173892
C           4.99188995791910   -6.12319299182662   -4.71819027183261
C           5.34509767810210   -5.19833877632361   -5.76928766663078
O           5.58829417729834   -4.00967388809727   -5.74693839801186
N           5.37290106357923   -5.99353107057233   -6.92860227907994
C           5.63391860137904   -5.41642906532603   -8.22600245198268
C           4.34574191081661   -5.17693059099249   -9.00910155018852
C           5.05244541512586   -7.30410416649095   -6.66135476474443
C           4.98559439957009   -8.31743743518375   -7.65006952551904
C           4.60544442372028   -9.58772285705910   -7.36316840292299
C           4.50731385271335  -10.58535550210153   -8.36755233470461
S           3.89982419231374  -12.19885311583620   -8.02786619421933
C           4.13591454199821  -12.50360848410490   -9.74199479131742
N           4.62382768537558  -11.46921317829107  -10.37200448770854
N           4.82326409963416  -10.42770241752943   -9.62714681988761
C           3.77084604019207  -13.73788892348031  -10.34604238374761
C           3.86196462927973  -13.94864716493585  -11.67877775063648
C           3.51999119690805  -15.15927949268526  -12.34209807762034
C           2.62329493127476  -16.12835411382583  -12.01833327683521
C           2.75055982240328  -17.45257674194227  -12.71631975249243
O           3.44414329901907  -17.68741665259637  -13.67527131439931
C           1.89671913959810  -18.36016281341469  -11.94545677018760
C           1.59484714533518  -19.68938621302934  -11.93846565379436
S           0.44835236728663  -20.04885465345719  -10.66906574690632
C           0.38251500386773  -18.39732263301546  -10.17233554893625
C           1.19958949989921  -17.62144939999079  -10.93388959541880
C           1.54626991818778  -16.21503474065298  -11.04566701813160
C           0.81685087731660  -15.20756854964357  -10.47237438342605
C          -0.25477545360043  -15.48487036537780   -9.59628316578443
N          -1.11800738691980  -15.68951971874013   -8.86927583248506
C           0.98197834915665  -13.83033662646560  -10.70964242526037
N           1.04783484563131  -12.69607085963667  -10.87119211142255
Cl          2.18577345797834  -20.90155824745838  -12.96286250002505
H           4.63808960459649    4.64445839153570    2.72762636596541
H           5.08763586456513   -1.10637948597579    2.41131649655450
H           4.79034649632631   -7.63932509385338   -1.01138682326395
H           4.29013681962001   -9.14376815594116   -1.84176914214319
H           2.51081028034682   -6.70863152770964   -1.32215204337943
H           2.42940830588134   -8.25024175371222   -0.46661337825538
H           2.01390404646108   -8.17587080732090   -2.18237044780120
H           6.31374561460491   -6.06549612710490   -8.78394243992242
H           6.13141870048654   -4.46131077776513   -8.03593923198133
H           3.81564258909070   -6.11027265938073   -9.18412064750278
H           4.57913352384393   -4.72262188814412   -9.96775584238668
H           3.69424877633559   -4.50485784493126   -8.45594399206968
H           5.23313160654089   -8.07043934915725   -8.67184988036177
H           4.34587411407395   -9.87455717904291   -6.35342549245735
H           3.42897388884359  -14.51560869640389   -9.67709105158442
H           4.29627793916100  -13.16308464270573  -12.28197876651704
H           4.09745356709877  -15.38001289480889  -13.23652479082471
H          -0.24739488709599  -18.12162518183429   -9.35007304154685
