76
 SCF done       -156.415606149692          0.000521531629
C           1.49748730948778    1.71149752236597   -0.55925376224313
C           0.58320477630470    2.70839655329283   -0.42177187929954
S          -0.64973632753033    2.27212274099630    0.70683054145454
C           0.08331560229229    0.71230527521192    1.00562517191120
Cl         -0.60303191591134   -0.40280799582613    2.07795878934835
C           1.21273179074925    0.56925638837406    0.25681081527469
C           2.23182299180022   -0.46258966773511    0.05161695703771
O           2.34001726367245   -1.52240339468292    0.63040239770672
C           3.17106920968855    0.13227877347080   -0.94690454363634
C           2.70310004033506    1.45316643209349   -1.32059033041556
C           3.23680570416611    2.29397336687637   -2.26246390334311
C           2.66168823227669    3.55225344986020   -2.53294263532810
N           2.20681750882630    4.58119357309807   -2.75920924863689
C           4.36331545358771    2.00442683519210   -3.05591972488446
N           5.26633294763629    1.81065522244720   -3.73850722527893
C           4.39262209057722   -0.40312014093499   -1.24734289899565
C           4.75779070486619   -1.73651910687090   -0.94758159145427
S           6.35841022787193   -2.07677925444715   -0.31543108072348
C           5.93846414906034   -3.73340790815197    0.02025778371190
C           4.67569415531981   -4.01057602469620   -0.45157147497268
C           4.01376804555780   -2.89776556904544   -0.99877733812024
C           2.67829870985709   -3.11945261228929   -1.62041920186388
C           1.80303920844702   -3.92819087976566   -0.67880918815239
O           0.61420439881039   -3.80060593000978   -0.59601244410609
C           2.56472812231512   -5.00610488594456    0.11644621648201
O           2.10155053478247   -5.52926816261799    1.09156793579675
C           3.94330249158647   -5.31527279390701   -0.43747527301727
C           6.84280430786071   -4.57690250368686    0.75242767547679
C           6.55620282323216   -5.31526920865888    1.90095476420730
C           5.26386789169398   -5.28335566760596    2.63579051442879
C           7.74196259153717   -5.97446609073762    2.36001996250862
C           8.76042426130878   -5.61457049355231    1.49536792644142
C           8.22865638536870   -4.72629822269464    0.46997480602359
C           9.07502893283594   -4.26283288273932   -0.50252701124243
C          10.42165309312494   -4.67171856744990   -0.44683039084868
C          10.83627549577639   -5.51514575179575    0.54543176061070
O          10.04413220135770   -5.98627329581949    1.49533983886629
C           7.88076389371275   -6.82749607465796    3.52775558691321
C           6.86061675428115   -7.66602418171887    3.96892699869498
C           7.05890558925964   -8.47175698108375    5.08817979531779
C           8.28059942104867   -8.34549375882892    5.76478161210981
N           9.25385417443876   -7.56937378153727    5.34498263944118
C           9.08013870854479   -6.85670050162849    4.25099855601127
C           6.02730486313483   -9.35161738650116    5.58500315456428
C           6.19229849957571  -10.58402581743729    6.11100464164865
C           5.09419919194914  -11.19601950338548    6.92838037472095
O           3.95340700850927  -10.81075317525631    6.99827621146891
C           5.74638945003555  -12.30222155932515    7.63852658585162
C           5.40998334556241  -13.21504739780127    8.59314571114180
S           6.77081582510011  -14.25016227780666    8.95736114615212
C           7.77480268576672  -13.44371396572331    7.80870246451959
C           7.10265826442536  -12.43613934421713    7.19010884547191
C           7.35663934147172  -11.46026210062329    6.14812390111796
C           8.39891383095127  -11.51454997312213    5.26465417827082
C           9.43118324585070  -12.46578659207941    5.40811188474007
N          10.27976965339527  -13.22803713175836    5.52889327359093
C           8.51869910767612  -10.72517671692383    4.10319124961820
N           8.63443241940759  -10.16520461473276    3.10806816548613
Cl          3.92097573530458  -13.40738377124998    9.37733900588358
H           0.54597547356041    3.66785254730166   -0.89834132109428
H           5.16593580758105    0.23484376662858   -1.65694388144321
H           2.80637512172034   -3.73545733976367   -2.52063728390979
H           2.17500195396884   -2.20028199224193   -1.91381115401915
H           3.83785804790891   -5.68902798304021   -1.46128398378921
H           4.44879863278963   -6.06930048071404    0.16101513305652
H           4.69704538972647   -4.39426060071664    2.36700265556295
H           5.44679071090908   -5.27620193996824    3.70894314678809
H           4.63884094350858   -6.14804229451240    2.41374833078019
H           8.73550101229574   -3.60239370117831   -1.28542551119802
H          11.12915747288157   -4.32905187123853   -1.18184099883896
H          11.85208238153253   -5.86935153416567    0.63994912991802
H           5.94047539491996   -7.75198374656028    3.41393367917670
H           8.45833054143739   -8.87577388298962    6.69178792839466
H           9.92948844912978   -6.26414865840404    3.94328636205063
H           5.01819587454184   -8.95281558671472    5.61854705674797
H           8.78948437176656  -13.76384721611678    7.67833201871538
