83
 SCF done       -177.948439977628          0.000638600553
C           3.00410006619560    2.85744519304049    1.70468615126234
C           1.97799688304256    3.63096988179394    2.15207325508312
S           1.63192722191231    3.30800991808540    3.81148087662757
C           2.90065799214352    2.11054469126324    3.91311968708047
Cl          3.20975630530042    1.26504065479763    5.34309792954534
C           3.53276841649881    1.98555942173029    2.71140696882972
C           4.63576304984903    1.19684136927126    2.16443021286243
O           5.41227226169528    0.48793553590784    2.75707093573741
C           4.69730128917720    1.59074776212502    0.71279505948464
C           3.72763651141721    2.64509292515107    0.46720724081349
C           3.46839496422051    3.29158934334378   -0.71246061396717
C           2.46346860571234    4.27855239972146   -0.80222358183390
N           1.65351921609774    5.08575785287979   -0.89174188755594
C           4.13250348874408    3.06678094187619   -1.93498454778660
N           4.63005807965248    2.92832050286898   -2.96004282796067
C           5.61849287791701    1.11013334960918   -0.16737312519905
C           6.35952262024533   -0.08197218238665    0.03280583116011
C           6.02412287273917   -1.25464310287000    0.67874583548108
C           7.09018643859195   -2.17274139057358    0.48413370688100
C           8.12671765028928   -1.47186822099511   -0.26278616463439
O           9.24807110586574   -1.75945129736009   -0.55732610398779
O           7.57321635766614   -0.22614821544237   -0.56212702184656
C           6.76233988262184   -3.33359728800872    1.15815968904738
O           5.54437818266136   -3.18085644870245    1.76124215186903
C           5.00462890450049   -1.93390882823933    1.46472032051676
O           3.90465540036312   -1.62192156036252    1.81578519506363
C           7.50705436838978   -4.52627684390808    1.25674714878715
N           7.45148661961432   -5.44912928455624    2.27110332993243
C           6.56270341928485   -5.43358170724479    3.41040531961723
C           5.21332073546913   -6.06140854560819    3.07635468189659
C           8.41237649146021   -6.45879858868576    2.10238642051494
O           8.57734044261290   -7.37016892190790    2.88754258231587
C           9.07067249107052   -6.12702365704805    0.85354817326932
C           8.48703949402229   -4.94573607110609    0.35447047433174
C           9.04303633376029   -4.68633545134167   -0.96303994700805
O           8.75695501711849   -3.89468765238698   -1.82614224978634
N          10.03623959934130   -5.68516545999053   -1.11012689880760
C          10.83022686445389   -5.76997352960635   -2.31287475112600
C          10.30947464945791   -6.84620918641975   -3.26196411798326
C          10.04840152951206   -6.55461890065353   -0.05733909083403
C          10.93552272234383   -7.65468626023851    0.05389915378997
C          10.88194815073813   -8.52923489395885    1.09032583013182
C          11.79386154570588   -9.61003942426556    1.20815100469481
S          11.70127821930983  -10.77855270049050    2.51612576432280
C          13.11075967932183  -11.52154810971143    1.77648714349141
N          13.50378677268617  -10.88624642932185    0.70213168796077
N          12.78990234094487   -9.85246465393335    0.39367466297447
C          13.73669569957067  -12.67897255014395    2.31206394714487
C          14.79330510318714  -13.27114632600344    1.70669099166583
C          15.45116557290881  -14.40571869080178    2.24564959811375
C          16.39993351064603  -15.16372098363067    1.63551416518661
C          17.28531177100688  -16.05003443240641    2.45882204866873
O          17.10058421969678  -16.38336509811474    3.60334746453367
C          18.41821853787859  -16.34603502871609    1.57461135476584
C          19.61457451250168  -16.99391813146595    1.66326785549031
S          20.46546005013566  -16.91951658837933    0.13838908301039
C          19.19024571202573  -16.02381437145007   -0.60419756090468
C          18.17797104264119  -15.79194358896759    0.27284786266627
C          16.86571015624155  -15.17244286622585    0.26018988507520
C          16.15456900609576  -14.86352218512317   -0.86786250449238
C          16.74210275792439  -14.95465220730431   -2.14789904231014
N          17.22103233892480  -15.00966390720758   -3.18861551902147
C          14.77697986833364  -14.55981066957241   -0.89178414313956
N          13.64688270912988  -14.37893285175051   -0.97054540604531
Cl         20.27542455176691  -17.78857099017077    3.00456308474479
H           1.40174234449174    4.36785040394887    1.62850304850562
H           5.82846486534425    1.63421870830624   -1.09133785051517
H           6.43009689178275   -4.40457070140164    3.74971979791906
H           7.05893819373793   -6.01436871151764    4.19278694675758
H           4.70558832104618   -5.48671142820899    2.30646650611707
H           4.58967472178635   -6.07598662669207    3.96530281612704
H           5.35078887926189   -7.08255222966690    2.72861763330035
H          11.87345932335167   -5.95772972076582   -2.04677349254429
H          10.75657305226493   -4.78958476238076   -2.79081609463315
H          10.34099753220998   -7.82842929607611   -2.79576536979535
H          10.91965475786169   -6.86694545875970   -4.16021573853697
H           9.28304164779811   -6.62730014328164   -3.54549332577053
H          11.68832270835159   -7.79887764279227   -0.70707145007316
H          10.13561144623333   -8.42545307365886    1.86651370518056
H          13.31483753143113  -13.09006445656791    3.21834286989892
H          15.16315460120713  -12.83068190139056    0.79222985905749
H          15.24124527178727  -14.66006557635787    3.27941942856643
H          19.28289665787257  -15.72533285129392   -1.62961394999196
