87
 SCF done       -173.899944550210          0.000905507580
C           3.30408648309643    3.25938368633970   -5.60383226519316
C           2.84186173847649    4.32706787564568   -6.30916617002156
S           3.39393073623442    4.28177558593287   -7.94352296998182
C           4.26563750782096    2.78971394682849   -7.67673868212719
Cl          5.14429185051724    2.04512536264179   -8.91857465664135
C           4.12111731578589    2.37921237794599   -6.38499180139626
C           4.56883570016078    1.25083170091690   -5.56304342550514
O           5.20089018537171    0.28127145233993   -5.91298972598317
C           3.98855166022241    1.51401971378228   -4.20888915304292
C           3.21253800725878    2.74413398135580   -4.25243218257588
C           2.55061392287104    3.36123536958840   -3.22451486405792
C           1.84484966459151    4.56626442193610   -3.42761986707006
N           1.26342539449543    5.54348844475997   -3.57923124388698
C           2.50212478103707    2.91174126362873   -1.88963408681551
N           2.43885519097557    2.60838166757048   -0.78444526403052
C           4.06557775060765    0.64768724436634   -3.16053241811214
C           4.91618328259269   -0.48636254619280   -3.05725501111016
C           4.62641889023557   -1.62312904365358   -2.33427428296103
C           5.68683456328402   -2.56498648001204   -2.50333971046849
C           6.70875223794732   -1.88688945386031   -3.31462023411388
C           6.24540167749197   -0.65089515060869   -3.63683681273528
C           7.99631022871931   -2.35973693581647   -3.60340142975926
N           9.07477497632392   -2.69261879421897   -3.81442202159911
C           5.74939821981688   -3.85454723146898   -2.02542721441362
C           6.73856668979569   -4.82923541738545   -2.32039995674434
C           6.47884767245743   -5.98016483560038   -1.59903919530027
C           5.27104636131210   -5.74685902464393   -0.81719342220806
C           4.81289938381238   -4.49634116766392   -1.08528109338374
C           3.65801356316721   -3.93245308453371   -0.53082477356916
N           2.70170915668666   -3.50367455834498   -0.06107883422511
C           7.28240927258325   -7.14569508235210   -1.68887615493289
N           7.36063786725895   -8.19291494140399   -0.79968007291895
C           6.72218241623805   -8.31881943428091    0.49052259786991
C           7.20586732908068   -7.26397836576329    1.48005915953488
C           8.30232736682258   -9.15231117350971   -1.20761158106311
O           8.56199189545076  -10.15506240181563   -0.56639322446476
C           8.80573750363353   -8.65878008212751   -2.46745635479781
C           8.17067625504333   -7.42739878461394   -2.73237778351484
C           8.62261751017062   -6.96128812053591   -4.03085179702561
O           8.33375096500709   -5.99832360560441   -4.70190025036053
N           9.53979947563492   -7.95080842387841   -4.44995514064007
C          10.26940914308592   -7.80822872636434   -5.68739359083781
C          11.67735127789320   -7.26736706090842   -5.45349678055703
C           9.66501992434596   -8.95833775492464   -3.53342679122217
C          10.51937340732243  -10.07456305870858   -3.68595955041554
C          10.60531955012542  -11.04599904757782   -2.73805026086263
C          11.44497621825839  -12.17556415341717   -2.81760286940242
S          12.51977262266386  -12.47360429923538   -4.17167040109471
C          11.57239671816955  -13.19153896423287   -1.87759984847661
C          10.93245423325841  -13.43214673209131   -0.60426974237617
C          11.34916694785360  -14.53712485428109    0.01191098430402
S          12.62718545779081  -15.40599675184157   -0.91493001592257
N          12.05020581294049  -16.76550754204376   -1.25144812797824
O          13.92957459661004  -15.24329316887271   -0.31092524937720
C          12.50867018320701  -14.17156525069569   -2.24400674678571
C          13.12503390375590  -13.94704877904524   -3.44048990289751
C          14.08389868464194  -14.80931758277658   -4.05486735835578
C          14.88643729805928  -14.72699175204859   -5.18405386744972
C          15.07594913300644  -13.64583755691702   -6.17694161762318
O          15.17685050226079  -13.85504042677233   -7.35038846832906
O          15.14971122175021  -12.39593009408714   -5.68080355625909
C          15.51625471626434  -15.99903781245012   -5.22052295850115
N          15.14246390824577  -16.73293158718192   -4.21567594170034
O          14.25529357211151  -16.02071899725580   -3.49349604236422
H           2.21469702801290    5.13509367462365   -5.98834788082575
H           3.39866924768163    0.79657770168457   -2.31914002812136
H           3.71679975776524   -1.81162472387812   -1.79690319918075
H           6.78546957006262    0.10426493027499   -4.17316654073767
H           7.54922565678076   -4.68683444641621   -3.00632378492450
H           4.78677333879629   -6.45264268219508   -0.17044469567959
H           6.99445828468352   -9.31517314317878    0.85188969295687
H           5.63608403321958   -8.28545971863197    0.37429071779277
H           8.28282174951897   -7.34011122706611    1.61006332807778
H           6.72817193812596   -7.42103744140630    2.44314644467140
H           6.96938103637393   -6.25978392766260    1.13507748635319
H           9.70095261843795   -7.09641638955162   -6.29218985977637
H          10.29960896948925   -8.76997743204458   -6.20624622834588
H          11.62448902544288   -6.28912755694600   -4.98229241867881
H          12.19260049449519   -7.16691082987126   -6.40426146743624
H          12.25172125311873   -7.93331020678815   -4.81304937506420
H          11.12055776285727  -10.14745541094938   -4.58191588903724
H           9.99835378730185  -10.97249640335584   -1.84454473011189
H          10.18313817516703  -12.75593701838838   -0.22238025470960
H          11.01777551081059  -14.92782386205692    0.95312037783731
H          12.70652558072958  -17.45743860381119   -1.56625343585943
H          15.13977730846270  -12.35820683423420   -4.71574620863708
H          16.22144618888500  -16.35819645021657   -5.94129997458689
