71
 SCF done       -154.822229062251          0.000710297469
C           7.99454429172557   -6.14947172109717    4.10851698999692
C           8.61274298270005   -7.05181461247353    4.91799067586755
S           8.07721282541467   -8.65848263402886    4.58350896475986
C           6.99380011936734   -8.11513078252369    3.32479091321853
Cl          6.05181780772256   -9.19489786553156    2.43129936638637
C           7.06796601208561   -6.75517377729011    3.19876797166946
C           6.45326112886283   -5.73932582319656    2.35750953976949
O           5.62165775449631   -5.91001587141247    1.48747752076530
C           7.03540563610487   -4.43980747820519    2.82454247173911
C           8.00995839278594   -4.72085013853463    3.88205012396927
C           8.83240928486307   -3.83947184228795    4.52638210919138
C           9.73122514576437   -4.27477749525520    5.52552405124545
N          10.46450362731282   -4.60948770185918    6.34084378376087
C           8.91155043909000   -2.45111095140265    4.29285296934540
N           9.03289204547334   -1.31882650706531    4.14856052817608
C           6.63341629467271   -3.19905989520882    2.45795921045006
C           5.66366345842862   -2.85885878762864    1.44324446838768
C           5.54039221460358   -3.54200373549519    0.23678267031752
C           4.50778071656895   -3.21102926210603   -0.64224717463431
C           3.71315097323705   -2.10531336293261   -0.31151550935526
N           3.86236404263009   -1.41785112807157    0.80122928745779
C           4.78431285236252   -1.78486103170196    1.66465546625806
C           4.27911605731887   -3.99833435180607   -1.82441084115076
S           3.51631188498362   -3.35668766424918   -3.25464022845964
C           3.59771711504395   -4.86276952436728   -4.12492548249259
C           4.18080970946107   -5.83703729596934   -3.31637464921285
C           4.55711660910895   -5.33569303993189   -2.02526917249606
N           5.07846383223314   -6.36154203083691   -1.30123139905040
C           5.03071776082486   -7.48403405700359   -2.09066448242835
N           5.50145577311195   -8.71505569680697   -1.60203673950239
O           5.95735108179187   -8.72425825981096   -0.46891565841823
O           5.42431702458534   -9.68535582173024   -2.32926772356075
C           4.50223351780236   -7.21085424106778   -3.33592288590218
C           3.10822259536679   -4.97329115318278   -5.44577564607066
S           3.24419403061686   -6.46544322480259   -6.33648436754601
C           2.45774780264342   -5.77400830037859   -7.71911372958789
C           2.11405809554709   -4.43645937814899   -7.48274359713726
C           2.48834124400610   -4.00160210552883   -6.20257665204138
C           1.47726913709289   -3.55898498045234   -8.45496140160653
O           1.16451390453346   -3.84299593707994   -9.58652574740068
C           2.25967415442334   -6.48276673624072   -8.92275731069333
C           2.73274678606208   -7.72823883025403   -9.18579003995342
C           2.54144092431893   -8.41233179695978  -10.41146390146904
C           2.26220216483620   -7.93314334681314  -11.65673267513155
C           1.72764988663477   -8.90799135577523  -12.66376042644309
O           1.70940004969120  -10.11032019833629  -12.55287163825312
C           1.20793178503702   -8.07093300503674  -13.74868392705749
C           0.51701629709406   -8.24728511824708  -14.90993390813179
S           0.23509612717523   -6.71026938019577  -15.69285699352595
C           1.06521019179118   -5.85054420390238  -14.44661480352984
C           1.52290957453515   -6.69723336717980  -13.48708407614583
C           2.29146877859150   -6.60998054513182  -12.25677208051058
C           3.04982913646064   -5.52052612836409  -11.91737437897915
C           3.02460339575790   -4.33736676177086  -12.68591619030199
N           3.02316843284101   -3.36877883743672  -13.30017883793008
C           3.96205232411790   -5.45937877175328  -10.84926309015120
N           4.73785461352602   -5.36391844784896  -10.00817408599701
Cl         -0.03606041623067   -9.69772916177067  -15.58804924626186
H           9.34181546410045   -6.88833119418296    5.68665557324352
H           7.01458315074764   -2.35422001481310    3.01851928860118
H           6.26982022146261   -4.28217458958759   -0.04641858345594
H           2.93291679506368   -1.76801507602897   -0.98127397844934
H           4.82959940934261   -1.21295872390722    2.58125237463865
H           5.31676919134690   -6.36672133567729   -0.31358718325937
H           4.37135111150425   -7.91582016845974   -4.13059946568582
H           2.31664813742047   -3.00509062855964   -5.83483840479862
H           1.29052568402348   -2.54463771198748   -8.05574482690287
H           1.67215996359553   -5.95922799162083   -9.66465653350252
H           3.24032923163990   -8.27287511475923   -8.39903964500076
H           2.56790184829422   -9.49750416999478  -10.35776280012755
H           1.14409036263400   -4.78343782167458  -14.50703419726758
