81
 SCF done       -169.878319661652          0.000772907896
C           0.95809920926463    1.92020867304590    1.47692464740270
C           0.17155292510743    2.93054881002923    1.93891327014886
S          -0.24562136107705    2.68848802437037    3.59483504750991
C           0.65795053192789    1.19459066448234    3.67287716519104
Cl          0.73243237516675    0.28084463787322    5.09651435847005
C           1.23698551842246    0.92492668812218    2.46793896696099
C           2.08196919075967   -0.13131182294474    1.90303636546950
O           2.51693931099983   -1.10615920381818    2.46878426097290
C           2.34024309027922    0.30599935121797    0.49019994190305
C           1.60478354466501    1.54534653025372    0.23790520058925
C           1.47729695383575    2.22248973906115   -0.94302842055205
C           0.71450125647299    3.40808032366078   -1.02799821223485
N           0.10240686878691    4.37427940041277   -1.11162497954195
C           2.03629778397615    1.84339031821717   -2.18106254722543
N           2.44901895832009    1.58643569403082   -3.22078017127297
C           3.24368401108728   -0.23486486339016   -0.36151740673715
C           3.98280318794301   -1.46886737983367   -0.22821836315552
C           5.27974687162060   -1.51957470675372   -0.74625005705291
C           6.03610480152519   -2.67179074921264   -0.64813944453874
N           7.42064522503984   -2.57252994141719   -1.05342492682787
O           7.66019955365773   -1.91361472990526   -2.04087299683702
O           8.25046952351215   -3.11392035940484   -0.35716549634834
C           5.51006355596855   -3.85237297708110   -0.09720345481809
C           4.20819212041390   -3.78623121075684    0.41182103990916
C           3.46025941264389   -2.63188017498199    0.35167559723222
C           6.21075444065284   -5.11961771624602   -0.10446004448122
C           6.97111502891141   -5.55784782906660   -1.12343681410620
C           7.65861807432434   -6.80997588114940   -1.14582242543566
S           8.43541655886587   -7.33135692143485   -2.61395492478322
C           9.00433091457726   -8.79033146269892   -1.87429944576807
C           8.62647963562381   -8.84095377413526   -0.53283686396663
C           7.85246808324138   -7.72942167394109   -0.14500239582644
C           9.07695487953253   -9.82611586416037    0.44521387250052
O           8.53781589882269  -10.04592200184540    1.50038515054730
C           9.69506829131672   -9.74254732207041   -2.68172517045051
C           9.78229660006321  -11.06206760087710   -2.42006111079296
C          10.49470571906627  -12.03550708399649   -3.21483446009869
C          11.02791957834324  -11.76053976111540   -4.47253322282254
C          11.69991933053060  -12.73251570818207   -5.19576159682629
N          12.15083445194574  -12.34191164213719   -6.50547763434866
O          12.33931233614802  -11.16072786145670   -6.69827318764626
O          12.31118036842248  -13.20344611569164   -7.34939901826521
C          11.89632191310675  -14.03281194876302   -4.68850427926051
C          11.35854937887377  -14.29085088916870   -3.42097778728870
C          10.66788921689844  -13.33533525661301   -2.71469900970878
C          12.63096908516826  -15.04129864203387   -5.41599370016196
C          12.49567051985929  -16.36957968890992   -5.25020278317431
C          13.23351713312886  -17.32731429009067   -6.01949463669366
C          13.56109713038032  -17.27089649479153   -7.33037881847577
C          14.63084765155451  -18.18895174987348   -7.84859971552537
O          15.10541704351125  -19.13130943006301   -7.26255492215080
C          14.97651608069657  -17.64026891722483   -9.16204619018300
C          15.89901181835339  -17.87958995096678  -10.13765499938643
S          15.69122751248875  -16.76190749812980  -11.46374071367119
C          14.35416235563172  -15.99088839200197  -10.69044420461858
C          14.09141585984931  -16.55821919583381   -9.48351093733329
C          13.12177687353460  -16.39869978723101   -8.41492282170905
C          11.93911119279969  -15.72941953534777   -8.54877209416494
C          11.62261255827045  -15.02695512924677   -9.73283808530565
N          11.34334048781691  -14.47256978117327  -10.69676039166182
C          10.89337487848712  -15.70745331242936   -7.60606709156142
N           9.99178061845564  -15.67795020856662   -6.89640865569917
Cl         17.11271064289157  -19.06118447610296  -10.16056845688137
H          -0.18905003079547    3.80075637273347    1.42730785469438
H           3.49104419286162    0.33067758572675   -1.25267597819194
H           5.72624004112846   -0.64173024307100   -1.19132853683299
H           3.77579194336809   -4.67846527389632    0.83821847149905
H           2.45123331502475   -2.63625190617063    0.72739130938332
H           6.02960305119171   -5.76093056011575    0.74579066342742
H           7.07587140125446   -4.96106692638766   -2.02087462531797
H           7.49413164137068   -7.61381192740347    0.86149686282070
H          10.01400503923154  -10.34498899305989    0.16297799437552
H          10.13249753969017   -9.33890867973479   -3.58473035596021
H           9.28218908278691  -11.46110546453196   -1.54839388646716
H          10.90610203169485  -10.79097778285528   -4.93027173667714
H          11.50762545610922  -15.26392478425119   -2.98133601367859
H          10.26113135798388  -13.58278223227337   -1.74521346086753
H          13.32762149278227  -14.69685943073617   -6.16813344489356
H          11.84016052791690  -16.77227428740258   -4.49018838308281
H          13.61348846802039  -18.19253739658828   -5.48331764651739
H          13.86589888605176  -15.16905801048989  -11.17509888526312
