71
 SCF done       -144.697638824465          0.000683038421
C           2.13423607395829   -5.23876402601970   -4.65553993509854
C           1.23961665058307   -5.93749093728986   -5.40162497053481
S          -0.06721668250108   -4.92891808079707   -5.91736107784599
C           0.61031313755736   -3.53391606041401   -5.10628676269346
Cl         -0.16400873484935   -2.02672392608353   -5.15504222643977
C           1.77591603465728   -3.86459079220158   -4.48618746107190
C           2.79085453455655   -3.18836085068043   -3.67314804418389
O           2.76904613359980   -2.01016120579510   -3.34941543254527
C           3.78619138906901   -4.22258479776973   -3.35205734255492
C           3.38335907724369   -5.47474783698891   -3.95630945066327
C           4.00934337312868   -6.70214269591788   -3.93100298364613
C           3.46041631592551   -7.81694983968433   -4.59322975505539
N           3.06190287554513   -8.75994137000738   -5.11482150607512
C           5.21420798448260   -7.05771562649053   -3.30172073549521
N           6.18106956155170   -7.47687327903634   -2.83631728562342
C           4.94692777724375   -4.13912977210077   -2.59919080636075
C           5.63148206639048   -3.14170367389821   -1.91645872928996
S           7.11043550447221   -3.71466387892488   -1.12390518376256
C           7.55385243557352   -2.16003794327855   -0.48118815760225
C           6.58612367543735   -1.21996237038644   -0.86409853887996
C           5.52980823638063   -1.76753083210950   -1.65352740285866
N           4.67550202823842   -0.77671975417913   -1.96130477907987
C           5.13707533451548    0.38918708390672   -1.39790073369031
C           4.45802984841962    1.60764768445909   -1.54052322183117
N           3.92000087763922    2.61530935581007   -1.64630276078894
C           6.31635329140500    0.15614473988979   -0.71331673949203
C           8.71685731675292   -1.97891407826136    0.28300847061209
S           9.15904985940815   -0.41341416529323    0.94226557596795
C          10.59853926514813   -1.04908640314044    1.66791274731862
C          10.72947307830122   -2.36752895330074    1.42213833309671
C           9.68168713248420   -2.92326458476340    0.64212424796198
C           9.80407778002382   -4.31127790971203    0.37123198815446
C          10.89930181013602   -4.92070189577245    0.88643609444499
S          11.88452797863307   -3.69853402451506    1.79291912175762
O          13.14444121834734   -3.47220015623439    1.14388703813412
O          11.89802824225686   -3.98807175409684    3.19853006256918
C          11.30273966214143   -6.27704275318069    0.79044269427304
C          10.59590176318725   -7.19325266930383    0.09206123017347
C          10.88260428874063   -8.59232327217062   -0.09314290079618
C          10.01864847718969   -9.33590470061134   -0.89244034591520
C          10.24997333872199  -10.70183630549562   -1.11092425390572
C          11.38554635501158  -11.25872759397179   -0.47884354224985
N          12.20039883953576  -10.56285659188496    0.27833869605118
C          11.97314538322310   -9.27681757926787    0.47437955102029
C           9.38202403345417  -11.46387146543890   -1.92808394022130
S           9.61557734740809  -13.14868323174899   -2.23245812270155
C           8.22703661601655  -13.34686441052673   -3.27997442969691
C           7.47361426647196  -12.22747442377880   -3.49809083552643
S           8.00063753297743  -10.76329478485845   -2.70553768926891
C           6.25541791245236  -12.14196567925005   -4.34109991470873
O           5.83525205961561  -13.08834801223679   -4.96559083541845
C           5.60020543630518  -10.79323894122359   -4.35587366371381
C           7.96717985098476  -14.65458787126647   -3.83068396116650
C           8.73292842502978  -15.71953090333698   -3.60875003819683
H           1.24610703305032   -6.96989808661004   -5.68889247395123
H           5.46480193827538   -5.08919211457732   -2.51601540616971
H           3.82526979456616   -0.92391855450277   -2.50690214406172
H           6.89640743741678    0.88265835811768   -0.18198599975483
H          11.24092699956437   -0.39643000846193    2.22361881487082
H           9.06213656280651   -4.83340996028356   -0.20859689169938
H          12.21564800896781   -6.53215772367372    1.30795333976101
H           9.69443313356405   -6.86497591994631   -0.40896960494836
H           9.16241291248907   -8.85997675977170   -1.35110066605589
H          11.62510854041166  -12.30660710276629   -0.60366898770271
H          12.68461786086744   -8.77040718841921    1.10928746052843
H           6.28684145913869  -10.04334319158436   -4.74633397191675
H           5.32484832953630  -10.49302080417339   -3.34607055986344
H           4.70854949125034  -10.82029282086431   -4.97684157937621
H           7.08823572245635  -14.71712520915415   -4.45616175167256
H           9.61648661292561  -15.67577018150499   -2.99132468521783
H           8.49507409244763  -16.67376693099151   -4.04359424758468
