66
 SCF done       -144.426049980384          0.000958022718
C           2.67555019320302    2.36519581267099    1.59305610915881
C           2.42420886565877    3.62360444889952    2.04908344780044
S           3.82102295189734    4.62506402912602    1.91760316887275
C           4.77299033841389    3.32490782842771    1.23838175292422
Cl          6.39450385343700    3.54554408104101    0.80956648498652
C           4.01947508468569    2.19364315180491    1.12750736818040
C           4.21602758297060    0.82413775156314    0.64712357771344
O           5.22432658574769    0.33342311391347    0.19889116539877
C           2.88351269833420    0.16092113197979    0.84108624347239
C           1.96806148417947    1.10950404076770    1.47103212829953
C           0.70260475149454    0.88196853436075    1.94008381367512
C          -0.06116052487225    1.91419126794496    2.52820825029911
N          -0.70233488033649    2.74130884435174    2.99672915914399
C           0.04155659359070   -0.36051001606103    1.96871679980765
N          -0.52914483441498   -1.35278110106252    2.06643486072336
C           2.60940420397008   -1.13555596924193    0.57250641604134
C           3.55163460131856   -2.11903009023026    0.10714936894447
C           3.54891889956912   -3.38383044641558    0.72131234934714
N           4.51382335332420   -4.25172416833551    0.55982149022176
C           5.50853311951824   -3.92021304855991   -0.26791480560195
N           5.48530557690272   -2.84691722706185   -1.06172012325943
C           4.53098097516474   -1.95891534542186   -0.88240793211335
C           6.65417616260067   -4.79451444419268   -0.27153711426468
O           6.68793233942541   -5.68401270012877    0.72960380230713
C           7.82410446680449   -6.38670452872821    0.63217105154937
C           8.54526776558807   -5.97020878115724   -0.46342878429917
C           7.80038802295203   -4.92753753824208   -1.05762745916944
C           8.25977008736379   -4.23021903990538   -2.29634406669974
O           9.21985116114975   -4.63388563396071   -2.89865177261371
O           7.57799118934788   -3.16966445094345   -2.69858117433963
C           8.07033590642328   -7.33509430076571    1.70277428886186
N           9.15751595974244   -8.10520023626381    1.68627831104669
C           9.31443732304191   -8.91094840780897    2.72223689352888
C           8.42472938471623   -8.95842755281869    3.78837502362706
C           7.31801518809809   -8.10439560630338    3.71546058722477
N           7.15566305777503   -7.31603827687312    2.65690443782635
C           6.30364590518133   -7.99207513775275    4.74595214354574
C           5.31489390343141   -7.08449243718572    4.60986885200127
C           4.26031410042895   -6.88023438245314    5.53932974436805
C           3.38171032956816   -5.84480510580641    5.53708826095848
C           2.09936060173401   -5.96669267120178    6.30747313742187
O           1.85133089479304   -6.78873819459856    7.15443327934764
C           1.24238137639821   -4.91419705245102    5.75196242709770
C          -0.05201359745808   -4.50211209963165    5.87607242030239
S          -0.36529439961435   -3.13063561855230    4.83744144845438
C           1.25835385909964   -3.12242421797412    4.26146271817485
C           1.99325317327541   -4.11978756098364    4.82366351519788
C           3.36021960216302   -4.60542874369182    4.77704396847089
C           4.41623767179059   -3.88804023161519    4.27869065832058
C           4.20630850018051   -2.62934941594383    3.67976211545176
N           4.03138902953857   -1.60089892716872    3.19881254000918
C           5.78209704853998   -4.21227735628907    4.42247107269980
N           6.90812343066757   -4.37980178690792    4.56300417779618
Cl         -1.26240099432029   -5.15485050809843    6.86262778148215
H           1.51892607851973    4.03318839387514    2.45162188876908
H           1.63572026361624   -1.52973308814438    0.83634250487781
H           2.74817586514045   -3.67504117993380    1.38993541719376
H           4.52334081120659   -1.12901701253392   -1.57261059003186
H           9.48792771924618   -6.34447750213750   -0.80439156306636
H           6.80578648309606   -2.93472428808654   -2.11972982936303
H          10.19659100096753   -9.53745905957651    2.69601381857105
H           8.58300879604740   -9.61339717178518    4.62944227589444
H           6.39554893751413   -8.61882764820008    5.62156540791161
H           5.32257602528984   -6.49257233894688    3.70424318803650
H           4.07564320991934   -7.65350823866560    6.27804987275652
H           1.54822488579509   -2.38429454436442    3.54122222890439
