93
 SCF done       -172.310781190037          0.000626988859
C           0.13499135099153   -1.49888183723556   -1.50380902898797
C          -0.98975897795469   -1.28169436631612   -2.23804269123813
S          -1.74482923209978   -2.77023313352075   -2.67518708793746
C          -0.52917853555136   -3.70817725849691   -1.83805908407939
Cl         -0.57752395001102   -5.39777700089123   -1.81641287097103
C           0.39902676452923   -2.88884477853130   -1.27327973941024
C           1.60775580442501   -3.03332207546424   -0.45799207965355
O           1.98632616281259   -3.99899484817203    0.15849077993787
C           2.16901274838221   -1.63992589995801   -0.38013945911717
C           1.17962214435082   -0.70639524499541   -0.88643260630008
C           1.20787793858943    0.66412473638608   -0.84459299142143
C           0.18119690996873    1.43949063595260   -1.42159479177526
N          -0.64546108187703    2.08477065187640   -1.88686478808240
C           2.21006266378439    1.43137559261831   -0.22165151490359
N           3.00166462972762    2.09324937530234    0.28273228348904
C           3.40551390207770   -1.34351917989289    0.10377862972344
C           4.43723698574206   -2.31029304263022    0.23261712641481
N           5.50358723907163   -2.20435805652621    1.09020794628150
C           5.64644919010335   -1.22173070841624    2.13677309923449
C           4.61744560347009   -1.42142536044762    3.24477598236486
C           6.41417422473016   -3.26197005291842    0.92310508248178
O           7.42256955527635   -3.39461363890551    1.58834311364023
C           5.86615050438676   -4.03634832729413   -0.17106918810169
C           4.65460347664578   -3.42597582855083   -0.56711138397557
C           4.14327559291490   -4.13246306290818   -1.72226718706284
O           3.17625117641584   -3.94312552391083   -2.43091506791285
N           5.06593139734410   -5.17274774054599   -1.92007498395114
C           4.90030806046704   -6.11899779027953   -2.99592995998020
C           5.81651310036862   -5.81002837173686   -4.17795470932583
C           6.09752545570177   -5.13130947956255   -1.00744127479085
C           7.14716028507207   -6.07692470658840   -0.97422721466283
C           8.15847404538447   -6.00950119347433   -0.06473181088152
C           9.24539561834156   -6.90541289553889    0.05997467667678
S          10.48787457670734   -6.49438316367944    1.22760871548887
C          11.41541792295589   -7.89436851889366    0.84660692288937
C          10.80982613657458   -8.63310015282480   -0.10732536695504
C           9.57483458447640   -8.10632486609765   -0.57317173629490
C           8.92804893844257   -8.91485009587039   -1.55940198515247
C           9.58756281149159  -10.04073991947072   -1.91867423506010
S          11.13478098305553  -10.15952658428566   -0.98792863182837
O          12.26558057210855  -10.02168258958987   -1.86094903772979
O          11.10751029298240  -11.28786282333866   -0.10161285259551
C           9.28631068424798  -11.07082571378837   -2.84248417168545
C           8.17176748937164  -11.13310455589040   -3.60493611427050
C           7.85171335378692  -12.16263811510534   -4.55283997127200
C           8.67057112045626  -13.25488952767429   -4.87845153862446
N           8.32688675996713  -14.16683597850697   -5.75858628646485
C           7.14913843222592  -14.03777329511549   -6.37727369844535
N           6.29687247767670  -13.03109156075091   -6.14843616906692
C           6.63550628032493  -12.13307826473629   -5.25710377423848
C           6.80809053353024  -14.95984201084802   -7.45757007359405
C           7.13497891418128  -16.32138658261627   -7.50858182512603
O           7.55080444526352  -17.09539587317954   -6.47800198778348
C           7.34196858597628  -16.71898391846340   -5.14063285729418
C           6.95041466755424  -17.02307857965006   -8.72803420791761
C           6.39299678596935  -16.37519959184634   -9.81360732266085
C           5.96686779051412  -15.04778676092511   -9.73143080066745
C           6.18448750035389  -14.35253308303749   -8.56018954902606
O           5.38497170147823  -14.53688105289400  -10.85222385766317
C           4.92762299612641  -13.20663761736556  -10.81687941354691
C           7.36825947045760  -18.42076807841763   -8.80303923596471
C           6.92444937612381  -19.31359872317325   -9.67846627140338
H          -1.42714832304201   -0.35634901686321   -2.55670771541905
H           3.66469898516109   -0.31925398141123    0.33964997880970
H           5.55694014375848   -0.21797181436826    1.70942149277124
H           6.65706044184582   -1.34932224226057    2.53356673604243
H           3.60658283781751   -1.33169797503461    2.85228316246780
H           4.75939290924429   -0.67178841337283    4.01745844219600
H           4.73045994331052   -2.40765793329461    3.68843357349653
H           3.85657469619251   -6.03422847202349   -3.31144801476723
H           5.06971789583453   -7.13279523804520   -2.62088386642180
H           5.59817718923250   -4.81763380499779   -4.56414829831229
H           5.65157913398188   -6.53361965862647   -4.97168505943462
H           6.86370537009626   -5.84198887614907   -3.88459180766075
H           7.12270672095836   -6.86528097053070   -1.70767886615856
H           8.15908064486430   -5.18366283187902    0.63665134563664
H          12.34364453140994   -8.08320161696949    1.34755033928130
H           7.97203056793676   -8.64786915566845   -1.97701687265752
H          10.04199457048295  -11.84128509298398   -2.90272981889768
H           7.42895605449416  -10.34973316091772   -3.51541564610244
H           9.64063692930858  -13.39554060333909   -4.41956600028940
H           5.91357635068126  -11.34209879233162   -5.08488602417590
H           7.28223257468711  -17.65140342240080   -4.57701442336982
H           6.40931496746496  -16.15914470671173   -5.02167193183957
H           8.17257400788156  -16.11580806624032   -4.76447799440677
H           6.26840008287162  -16.88988177563441  -10.75200327656330
H           5.91934436259017  -13.31351406567208   -8.45622426958801
H           4.47878796751519  -13.02353237783682  -11.79190607196517
H           5.75138691720403  -12.50266318969355  -10.66009101184580
H           4.17375353614811  -13.06226435220000  -10.03654560962768
H           8.08602781539219  -18.71727254743091   -8.05172868066802
H           6.18174078186940  -19.07873644295839  -10.42189430866374
H           7.28509245469109  -20.32772139257913   -9.67348937313094
