104
 SCF done       -230.790111408065          0.000595682180
C          12.26851412829111    4.95520294137067    0.52386142177629
C          13.12278671141677    5.81905643458503   -0.08850186286753
S          12.45177941387892    6.42284470385736   -1.55922582794274
C          10.98897731906007    5.49367223810081   -1.35523213454590
Cl          9.73481438951653    5.55069086554509   -2.48829641815523
C          11.04410385644484    4.76687872663250   -0.19943464416969
C          10.18774132427786    3.81548146273511    0.49797037689519
O           9.10006045256076    3.39833282018230    0.16561549105389
C          10.94149822534716    3.47805458396962    1.75450242794070
C          12.24743097598309    4.13313991942893    1.71471333961306
C          13.28528036922926    3.96686847123306    2.58482491772845
C          14.50407293950491    4.66042578815674    2.41212126399484
N          15.49417464526946    5.22347678532682    2.28169567131092
C          13.28595921314156    3.09338413405645    3.69371207531297
N          13.35473749822127    2.38490360641554    4.59292104712443
C          10.41676715363420    2.80207057763622    2.79484757210994
C           9.09894664329737    2.19909433263442    2.78977459943131
C           8.60610864069755    1.35567079585190    1.78208953793464
C           9.44285381771859    0.84237243687538    0.66954805077749
O          10.62586870211856    0.92777294328524    0.53631119542984
S           8.39721429950651   -0.05752956858043   -0.46706138028277
C           6.95161810514291    0.09051631171350    0.58239691785765
O           5.90065315152363   -0.40961301817598    0.30776300441110
C           7.29395580260362    0.89388286542207    1.77353488156916
C           6.35964864657805    1.21501755315519    2.78556944246348
C           6.89447519228300    1.96550079867228    3.84582157083499
C           8.20295542655357    2.43689528285121    3.83252500861954
C           8.41909680045094    3.20146015713971    5.08479011929151
O           9.37080187151420    3.82635574450987    5.43547569734457
O           7.27974715483645    3.07170712418688    5.83093499592594
C           6.32594055536506    2.32566729685933    5.17027820216657
O           5.29120027319603    2.02843079160702    5.67768773697002
C           4.98547762105670    0.79522402564638    2.72558858724759
C           3.97197060182285    1.58897823649403    3.13538688389910
C           2.57195414323459    1.33856978045675    3.13526979416588
N           1.87251259335396    0.17718148060111    2.91618480471394
C           2.38369323108167   -1.15447446941226    2.68923624421171
C           3.02316164509898   -1.73685780266906    3.94660119970878
C           0.48184369519144    0.37808633555386    3.04775172584194
O          -0.34008725133475   -0.49954426880089    2.88398134140369
C           0.34256199374999    1.78333043120758    3.36624120256914
C           1.64015101878239    2.33918063112821    3.39817733254552
C           1.52150450010590    3.75712302740233    3.67404946884751
O           2.34370657540460    4.63976383238101    3.76683930033373
N           0.12972082725396    3.95981570348682    3.80459800346200
C          -0.41254437604670    5.26254826887119    4.10797904568073
C          -0.74495019390825    5.40594817962704    5.59094570489963
C          -0.57530081508479    2.79737770003364    3.63867384946621
C          -1.99209087897306    2.70512330782817    3.73521795928099
C          -2.62848307133459    1.51689285949472    3.66398193359646
C          -4.05511502535661    1.34084334032603    3.71984746646165
C          -4.63958518048819    0.26748378100236    4.42114438172100
C          -3.83004259079410   -0.65169870948085    5.24910282984219
O          -2.66860998450001   -0.57611892121126    5.50964240512289
S          -4.89931767723302   -1.92961440469905    5.90693344742396
C          -6.37730738507659   -1.17182066227569    5.23967302078405
O          -7.46038911715138   -1.63913242911271    5.43334176611772
C          -6.01082361733370    0.03509063033032    4.45606752467982
C          -6.94647954720175    0.88133980671602    3.80869696938796
C          -6.35543502805349    1.91508705253532    3.05103975064193
C          -4.97979593076700    2.13858893074275    3.02780539707613
C          -4.71969942913959    3.25328415638605    2.08418036847659
O          -3.70353531455380    3.79072179768234    1.77053890504540
O          -5.93016148463062    3.62052533380394    1.55687277102203
C          -6.95016140311094    2.87029593187242    2.07559080739122
O          -8.07459092334517    3.01824493871861    1.70636759140536
C          -8.35627785654826    0.68319994044319    4.00867258053221
C          -9.30417123571600    1.63986205385534    3.89788991964225
C         -10.65426916502946    1.42434760793658    4.28357796135380
C         -11.58166793627458    2.39509638103300    4.48426852154098
C         -13.03152553097876    2.01736265733111    4.58595254950125
O         -13.46820434323269    0.90598484563228    4.75121592572050
C         -13.74831809442173    3.28032876594406    4.38991970491428
C         -15.04429768528199    3.68601504015861    4.26636056729445
S         -15.12200321331109    5.41572508075699    4.02867721880252
C         -13.40606930739417    5.57050073801144    4.10905759881177
C         -12.81047553671293    4.36241167721170    4.30138053671071
C         -11.46590258070811    3.84589114910655    4.48451571345164
C         -10.37801355887681    4.62870022290723    4.76647299963776
C         -10.47568592427918    6.03878578552731    4.75409574324165
N         -10.53145201117808    7.18407592461045    4.74019670708583
C          -9.09855671210628    4.19805142724111    5.17277737323933
N          -8.04165068129338    3.94192276596277    5.54207101872729
Cl        -16.44508150995548    2.73743315640323    4.32022386445661
H          14.09635618894689    6.14496456106914    0.22038067140621
H          10.94340111105857    2.76168649931461    3.74020418860170
H           4.80482592855165   -0.15508469669396    2.25035826772663
H           4.19857814355688    2.59137656193968    3.47569646766452
H           3.08067744582357   -1.14746945322149    1.84775733695605
H           1.51461405789155   -1.75735059577675    2.40864028186586
H           3.83249610902120   -1.10599380135385    4.30654563184534
H           3.41610023357355   -2.72682913614062    3.73267332504191
H           2.27829350491001   -1.82198139578889    4.73397488333106
H          -1.29418674235926    5.44127814630470    3.48700093161876
H           0.36331256447787    5.98368503965819    3.83621176215530
H          -1.48382697483591    4.66987729604503    5.90007722640366
H          -1.13886259221065    6.39971337734578    5.78413505734312
H           0.15294814484817    5.26631036065822    6.18785416971507
H          -2.54461278872017    3.61702893570739    3.90184850317680
H          -2.04237734935570    0.60757554602352    3.59210698840602
H          -8.64592545803562   -0.27791914273215    4.40913534650053
H          -9.05884272436612    2.61778225755681    3.52302332527416
H         -10.99925412144063    0.40246062203621    4.39943475495605
H         -12.96086771781910    6.53927005798310    3.99796029269863
