73
 SCF done       -146.447200126603          0.000311613202
C           3.91462457024958   -9.79819038886298    5.89691508286195
C           2.95109564403245  -10.73828753100764    5.70393473037943
S           3.47050083098069  -12.28829420330611    6.25921716450557
C           5.02254567831234  -11.65895685963710    6.76343005277265
Cl          6.19360184875936  -12.65899991049205    7.46832195889537
C           5.10154881500341  -10.32410999797009    6.50345758458708
C           6.08394774906459   -9.24953754330715    6.67382339976899
O           7.19763432962597   -9.33105225290628    7.15094587573351
C           5.42602608806565   -8.03854621973004    6.13730502284624
C           4.09632088178627   -8.37835476030432    5.66209553002985
C           3.15368104905875   -7.55852876611148    5.09490702240020
C           1.90044722848915   -8.06028387882906    4.68562831994588
N           0.87615262320383   -8.45056332296528    4.34651534530859
C           3.29163246103858   -6.17844559941194    4.85416200263977
N           3.34271242497669   -5.05180574558741    4.63300615835749
C           5.97431295536955   -6.78463043320868    6.09198582738136
C           7.22650161077896   -6.31348706795560    6.51017000224269
S           8.54151907107285   -7.22970992569484    7.24985870647644
C           9.53176228711867   -5.82313481746707    7.36800628387307
C           8.91665686575510   -4.71440793126165    6.88090662869291
C           7.60652891569024   -4.97822430320188    6.38803816767268
C           7.02942839103080   -3.77049330266082    5.89871085130834
C           7.92547294049696   -2.74182454890477    6.06499933505065
C           9.18608475882123   -3.27526891843393    6.70285350041740
O          10.16799050111175   -2.63645378954293    6.99048454524121
C           7.83101363780256   -1.36552591786465    5.75771428307146
C           6.76367538291298   -0.75432984696403    5.17708381094125
C           6.67734746585969    0.62848578640655    4.89985051824254
S           5.23385655490923    1.23206883278823    4.07462425910536
C           5.80265255662490    2.85909422690307    4.10410073579667
C           7.01335449339332    2.94440297593207    4.70393731770619
C           7.52787929891148    1.68841819410162    5.16199139176219
C           8.79170549801156    1.93423162633669    5.78295897641843
C           9.09364795129907    3.27087995800281    5.73730067085358
C           7.98199920112594    4.00755726135103    5.04864813224851
O           7.88428515694264    5.19247841674507    4.83295019341376
C          10.27411125439434    3.86062272102226    6.27806546356269
C          10.56302387346956    5.17676345605754    6.21871713626598
C          11.73901121107148    5.80910723269556    6.76634932746747
C          11.94965781506028    7.17106373443923    6.53632153323117
C          13.08125925768648    7.79612682450065    7.04825864586010
C          13.94954780259015    7.02247536137351    7.82541105524373
N          13.75355637089264    5.74254531852378    8.06700670189143
C          12.69613495879930    5.14990319970562    7.55185179990897
C          13.34216877156485    9.20550889742578    6.81625025552790
S          13.73192578870759   10.24082256562649    8.14129917747112
C          13.80766129553055   11.62335114407452    7.14725562682678
C          13.56046422417181   11.31999894456329    5.82952028210346
C          13.30309680773128    9.91797119314982    5.62736744041825
C          13.12031890077756    9.44390359198125    4.29510725341750
C          13.02009854833356    8.06741524545815    3.99607784660054
N          12.97382327937131    6.96341700853376    3.68794390493168
C          13.11241384631200   10.34014344188903    3.24726450985077
C          13.30291754023636   11.71440512680564    3.45477460662875
C          13.54193843085872   12.20983143724153    4.71534035068229
C          13.77802137980293   13.58477646903317    4.92508052535969
N          13.96926069673541   14.70166770497939    5.10140547009557
H           1.97361718463573  -10.63460820584887    5.27643057253638
H           5.35619849674607   -6.00309523682228    5.66726545943063
H          10.51386558201803   -5.89965153336442    7.79394366589435
H           6.04556163269003   -3.69010076604189    5.47144486726909
H           8.70482674448213   -0.78854431117643    6.02254259704234
H           5.90315908090119   -1.34590397134929    4.89496472611463
H           5.20429635135201    3.64065746471125    3.67818403878493
H           9.42481191717049    1.18890124425900    6.23001155819049
H          10.95499982359234    3.16790542026005    6.75660780288845
H           9.87277218977715    5.83718402726190    5.71244585532893
H          11.22099733970560    7.73731352627321    5.97309328788003
H          14.83887761275681    7.46002908178353    8.26047663783495
H          12.59966803279306    4.10103357308641    7.79339839478958
H          14.02311378453565   12.58508429218132    7.56814102787342
H          12.97181705339263    9.97339219380063    2.24144905079937
H          13.28451740168196   12.38562308700909    2.60943215504248
