79
 SCF done       -150.086321504683          0.000765013529
C           1.49197499199770    0.15710272265113   -3.32546552486098
C           0.39791542869739    0.82660345045460   -3.78064722305225
S          -0.72922912460044   -0.25055008940803   -4.51875300176016
C           0.28874101272653   -1.63711260422746   -4.20298491337725
Cl         -0.17076633304970   -3.19558743870058   -4.67686431216254
C           1.43185874920047   -1.25407557493139   -3.56856850073740
C           2.63139753658476   -1.90643325197250   -3.03363106752548
O           2.85378380845077   -3.08824600108054   -2.91818690071717
C           3.46149884165475   -0.77869810805950   -2.50032966768662
C           2.73767739894256    0.47421869970562   -2.65804914388699
C           3.15148746461532    1.73246984645767   -2.31842379982687
C           2.34328363185747    2.86374372238259   -2.56134059560473
N           1.69632928367968    3.79275111890392   -2.74640257252740
C           4.38751926464500    2.04849727815607   -1.71912303304108
N           5.38222609948696    2.36401973842395   -1.24147430751533
C           4.64408945641607   -0.96315414526217   -1.87007983545774
N           5.35406956529305   -2.13187899214978   -1.96991952455545
C           5.53593720744699   -2.87141913797536   -3.17950831505979
O           5.13568539402429   -2.51061612496904   -4.25114251917646
C           6.39168975549437   -3.99074488167333   -2.81093539019747
C           6.77388527791497   -3.88783844535712   -1.51054486968340
C           6.13166576649117   -2.66011772926261   -0.94320099808508
O           6.21468435796887   -2.18173524647311    0.15775706427195
C           7.64993262315817   -4.74811164154598   -0.79715911966466
C           7.99573457796994   -4.55527142751278    0.50355696618806
C           8.91784249553362   -5.38510092294133    1.18632807218192
N           9.26409959360066   -5.20862653565125    2.50630347431585
C           8.69336850607493   -4.25071675111932    3.42360281012152
C           7.30434899769145   -4.67301636688397    3.89455326415217
C          10.23624491331310   -6.12932133269522    2.92484136304289
O          10.69636660136889   -6.15993306607122    4.04957047656452
C          10.50334171983079   -6.92810887251153    1.74774004943328
C           9.67310010821610   -6.45321376283342    0.70256357409786
C           9.95066229092055   -7.24255146668642   -0.47824307691817
O           9.48948186178011   -7.22119881187805   -1.60150579039499
N          10.94262965918828   -8.14955903786948   -0.06448515242571
C          11.52597800274368   -9.08728223600272   -0.99368190589460
C          12.86298561572828   -8.58975504357328   -1.53824562378366
C          11.29013679445308   -7.96773890443044    1.25289000299727
C          12.28990891976901   -8.72982694054290    1.91516829256034
C          12.61920886501249   -8.52241844006864    3.21119284305036
C          13.65282065489595   -9.22394242994958    3.92076688306666
C          14.27266511062954  -10.40954943592645    3.49373480628700
N          15.25855083297133  -10.97262502145870    4.15263204298432
C          15.64917002056350  -10.40285257205267    5.28957062279937
N          15.09419776217199   -9.31756438375314    5.82401664720485
C          14.12846125904727   -8.73769710615896    5.15243408538821
C          16.77150024277867  -11.02122039567176    6.01222761341130
N          17.38099610980457  -10.28024203181256    6.93230960153139
C          18.39091533349644  -10.84253740523599    7.57093146021272
C          18.81168675116317  -12.13634497025400    7.31061873163986
C          18.10906747014227  -12.83859737577604    6.32413976431700
N          17.09158794694396  -12.26330239367236    5.68598967546100
C          18.40232149537689  -14.20713859836122    5.91385387915134
C          19.36205625588530  -14.97957497992598    6.40716121469864
H           0.17257320704450    1.87357383746179   -3.73310178305194
H           5.10082848471835   -0.20374255837434   -1.24567927590528
H           6.68830346760228   -4.74442163524571   -3.51582530972025
H           8.05928726206033   -5.58372105305552   -1.35056013171968
H           7.56941697781912   -3.72417781848444    1.04547745046403
H           8.65823934914460   -3.26540847732396    2.95131461354176
H           9.37558728852319   -4.20982173472625    4.27730618788339
H           6.61274175967959   -4.74225748298297    3.05809496478454
H           6.92153217074152   -3.94344430130702    4.60242475025882
H           7.35496865166984   -5.64171939139905    4.38611494831844
H          10.81068648132950   -9.18356751885311   -1.81525390493645
H          11.63783396598315  -10.06103886850392   -0.50939986285500
H          12.72256281528983   -7.64474144434040   -2.05697575703908
H          13.26647477895401   -9.31423294187102   -2.24007724997176
H          13.58247950734357   -8.43984766719243   -0.73619938967230
H          12.80433330229809   -9.48256929588090    1.33592856972351
H          12.10480051137723   -7.75092592508789    3.77030515519038
H          13.95318034475059  -10.93128768514123    2.60008890074403
H          13.70681537721076   -7.84189163794348    5.59215384525966
H          18.87789173977981  -10.22541723022611    8.31564949762910
H          19.63903854404165  -12.57285782173874    7.84415171460959
H          17.74437473312904  -14.56771376023668    5.13569110253043
H          20.03441656662599  -14.65338702056989    7.18291014788377
H          19.51080848488042  -15.98301871233663    6.04709222009153
