85
 SCF done       -169.608775750590          0.003126154405
C           7.47530095635001   -2.47071059913472    3.34261373147260
C           8.36771872802509   -3.30181691626525    3.94637997738759
S           7.71841068982305   -4.89053212891009    4.12979582707142
C           6.20510134374601   -4.42666514076794    3.38752347009311
Cl          4.95639859469938   -5.54415811045909    3.19192870952220
C           6.23654553318263   -3.11486481053161    3.01456650334213
C           5.35616305832704   -2.16906528843946    2.32119552875322
O           4.19368721506547   -2.30277882923955    2.01844017494678
C           6.20496064086842   -0.95103487648842    2.11873109985411
C           7.43027877321940   -1.09119567656668    2.90013143975248
C           8.41032356484810   -0.16362172523897    3.10758957938942
C           9.62170654087661   -0.52176588491568    3.73567537498392
N          10.62409301780943   -0.82565259131843    4.20416486571964
C           8.33245667161867    1.19538626812798    2.73469735251915
N           8.30977501290110    2.31585901777614    2.49117874029477
C           5.97179775986556    0.00195170420684    1.19174186251315
C           5.03106229237403   -0.09488483382425    0.08988524730538
C           4.97766580411777   -1.19157630864647   -0.69821922420520
C           4.12299430752309   -1.29359564407308   -1.93406936288218
C           3.36702070005345   -0.04522775503373   -2.20654886905437
C           3.42460886925991    1.09909652835169   -1.38083120518417
C           4.25629236149982    1.17213535996273   -0.15563409585874
N           2.66269318575398    2.07806771122435   -1.82004383747271
S           1.91975060614357    1.60034970817161   -3.18084642050838
N           2.56175865494378    0.11054843894691   -3.23665769800824
C           5.87725630608056   -2.32040607956033   -0.44631592587611
N           5.50298898832085   -3.63016266566657   -0.30828631712795
C           4.17426674981435   -4.19575295729633   -0.35406575712372
C           3.89702298839756   -4.87659358035704   -1.69205436908971
C           6.59352835914327   -4.44323525746287    0.07492193789361
O           6.48074757481354   -5.62661444395317    0.33210687929264
C           7.72111070954691   -3.54760729503028    0.10976904092138
C           7.24360663837231   -2.25208493019211   -0.24396086521940
C           8.34380128431303   -1.32532707930750   -0.13275013961867
O           8.41307202628346   -0.12240319114802   -0.28882350767870
N           9.42410213738000   -2.12028298002731    0.29181398262421
C          10.74195707517205   -1.55839190011843    0.47178356087251
C          11.68421726493080   -1.93852488489614   -0.66716094426033
C           9.06077882224869   -3.43842969827493    0.45992942560237
C           9.93622908482522   -4.43052381075537    0.98103643815428
C           9.55140617960460   -5.71383997641253    1.16022369639007
C          10.39723875302291   -6.75625116301369    1.66583783080628
C          10.01125098778038   -8.10258345128493    1.54975647225483
N          10.80112887146699   -9.10046496646819    1.86972521364248
C          12.00616131878637   -8.79500339416410    2.36066281937290
N          12.41327945243981   -7.56124844838716    2.65271549191847
C          11.63515359153296   -6.56445255937353    2.30160158466665
C          12.91920206432540   -9.87844012604268    2.66387903093939
C          13.02009528593915  -11.05176749158697    2.01148510823591
C          13.75337101317960  -12.20244449097739    2.64548036787937
O          14.50702261035718  -12.14266056506328    3.58326357578451
C          13.28960360870725  -13.37553335167574    1.89769277941633
C          13.44312572967233  -14.72930604976296    1.96485035996506
S          12.54688565388576  -15.51107407240089    0.68542399276512
C          11.98470872205287  -14.00232848464920    0.06597791178710
C          12.45352907651562  -12.96208538143486    0.80648044526649
C          12.39343917964981  -11.51443035705904    0.77703741125694
C          12.02017532511939  -10.77056100685082   -0.30471236972702
C          11.47685876387564  -11.37796684603447   -1.45805057661204
N          11.02574137057071  -11.86335770502470   -2.39419374148572
C          12.20122945250418   -9.37847286160646   -0.43930316663300
N          12.37164995516189   -8.26204545841990   -0.64277428196188
Cl         14.34892940114456  -15.62294753464687    3.08220156526568
H           9.35701973732867   -3.09641973523920    4.30303744384074
H           6.59245415320112    0.89040727949077    1.17736137170535
H           3.40990614728977   -2.11688323177433   -1.84271528481627
H           4.76262292007179   -1.52773566241191   -2.79300294398962
H           3.61824183794900    1.38443903777736    0.70989671925531
H           4.95794512396581    2.01041867215311   -0.23613920785503
H           3.44782506970147   -3.41655891638279   -0.12051322610993
H           4.13003391829880   -4.94993748321290    0.43679563398112
H           4.02074227960936   -4.18958136141327   -2.52578998263949
H           2.88143778221129   -5.26217584486864   -1.70277173919571
H           4.58560520121128   -5.70701390815205   -1.82585103790468
H          11.14821926987394   -1.87075633207638    1.43874220996911
H          10.60486194245192   -0.47303010072720    0.48738361965995
H          11.80802940868574   -3.01713430852449   -0.73276424811528
H          12.65677428691326   -1.48356634282589   -0.50275771135654
H          11.28739126284194   -1.57856356843378   -1.61312915893908
H          10.93899130916370   -4.12067075668114    1.23459328162961
H           8.55228619689971   -6.01333263583659    0.87085501703806
H           9.03545708715990   -8.36820728816271    1.16192667481398
H          12.00263263416753   -5.57873016621672    2.55369759182212
H          13.55515850922115   -9.73073031390471    3.52853167692221
H          11.34190666722169  -13.99023815902788   -0.79193043309864
