81
 SCF done       -164.633363573899          0.000520226302
C           0.98746436132702    1.69922522379391   -1.51647537863290
C          -0.11399452178205    2.39389014711525   -1.91105867254187
S          -1.45163161025634    1.33901684684591   -2.18560838447048
C          -0.51117515186139   -0.07140850881902   -1.75977881431735
Cl         -1.18609383861805   -1.62424383580255   -1.78681451713693
C           0.76186598900195    0.28707061021151   -1.42817727324110
C           1.98670072624673   -0.39225981748804   -0.99584952406397
O           2.15626873724828   -1.57702643583795   -0.82158029053382
C           3.00031804945138    0.70423682487005   -0.86861664227896
C           2.35896038594466    1.98337259444341   -1.14888215780639
C           2.90148646706309    3.23589923585103   -1.05198967333300
C           2.14369722880151    4.38856510685618   -1.35027857060552
N           1.54081824617751    5.33329495918723   -1.59429393876984
C           4.21811193020574    3.52712127189961   -0.64229965088140
N           5.27431707923765    3.82479535119444   -0.30562646710179
C           4.32961993484999    0.49878758123573   -0.69720528590632
C           4.94058824994052   -0.77275956467710   -0.42666498738889
C           6.10181339032018   -1.18747115502605   -1.10601139151296
N           6.63599018208624   -2.36628221490897   -0.93367866983264
C           6.03950643932062   -3.21004879590823   -0.08720841595909
N           5.00306893358178   -2.87477878631917    0.68472051154213
C           4.47668396822382   -1.68550657257982    0.53502959562359
C           6.58638374213952   -4.54085548496762   -0.03841954026868
N           6.27547111690013   -5.50661151381428    0.88230114317953
C           5.33254345318536   -5.41923134532016    1.97216765453147
C           3.90653163221030   -5.68818251009037    1.50191663750965
C           6.97052895296990   -6.70095553114751    0.62956186421194
O           6.86969359560392   -7.69903017933845    1.31892482219066
C           7.75958146428565   -6.41791956649302   -0.54712059976338
C           7.50869161893376   -5.07487107530136   -0.92822668843621
C           8.28068022304836   -4.79644364855585   -2.12779897388940
O           8.39953046479738   -3.82493772663739   -2.83278119680618
N           8.96730017191633   -6.01214653018633   -2.37480567583193
C           9.80785541822997   -6.16435306806314   -3.53748247591898
C           9.08220144982843   -6.88626361557937   -4.67060757590869
C           8.65526115734992   -6.97954221550098   -1.45626350681731
C           9.17895033530647   -8.29811089226639   -1.48539078615123
C           8.81407647943748   -9.24601817216335   -0.58783425889150
C           9.28604187979464  -10.58357984623174   -0.60683907239421
S          10.44940255552567  -11.16662321036198   -1.75531972060009
C          10.36089767736220  -12.77325412023974   -1.11374186660002
C          11.23244284170380  -13.77328417075412   -1.67155627463262
O          11.26192377196611  -14.94860676267739   -1.37532802252872
C           9.46812281603871  -12.84104216063142   -0.03903989918043
C           8.89751369701911  -11.59344649483999    0.25079403313021
C           9.18093892685991  -14.01421044152393    0.75354831615809
C           8.96328031294116  -15.27851423894284    0.34953421253958
C           9.02452670925638  -16.38991319759060    1.36008086899902
O           8.96989475607216  -16.26907958274385    2.55818181915114
C           9.21812600693357  -17.59537785734685    0.55029547676470
C           9.47251727550285  -18.91718871676383    0.76818575386245
S           9.61006913104156  -19.77144230974480   -0.74986478011808
C           9.31345288419780  -18.33772213850238   -1.66114919865570
C           9.12753361089972  -17.26716951680613   -0.84381817744207
C           8.83182301213605  -15.85745728065172   -0.98311920114360
C           8.34161012890184  -15.26528476775787   -2.11186448858520
C           8.22672166025750  -15.97789537065379   -3.32489746410156
N           8.13521963358120  -16.53881499111678   -4.32102683354502
C           7.86783348117582  -13.94157341508910   -2.18983818702007
N           7.43486552525621  -12.88459071718882   -2.30620290570153
Cl          9.64733834324531  -19.71729212609186    2.25009540981017
H          -0.23464020842359    3.44787077855568   -2.06476572092865
H           5.01357010288648    1.32917905668403   -0.82492924778923
H           6.58572080516594   -0.54741870158059   -1.83199826652220
H           3.68552672165273   -1.42433563459488    1.22399203347698
H           5.39961744084890   -4.42835726529579    2.42307491787772
H           5.63478336342920   -6.18159989105761    2.69594022945317
H           3.59367399180512   -4.92454558710918    0.79505831186982
H           3.23314461769276   -5.67268853122544    2.35389300368189
H           3.84649931450346   -6.66437195578426    1.02673239332267
H          10.72436284945672   -6.69271199221397   -3.26103040458920
H          10.06695685582229   -5.15083206716651   -3.85632799668036
H           8.77293482949921   -7.88363398563388   -4.36587675015255
H           9.73794450437618   -6.97088599647103   -5.53261502892613
H           8.19844862821099   -6.32352056447117   -4.96066466508575
H           9.88539995848533   -8.55025468108021   -2.26486019587305
H           8.10378113334828   -9.00499049033338    0.19354777692289
H          11.91316187702929  -13.36556247884111   -2.44299717133999
H           8.18427363069696  -11.43582890373296    1.04003347053981
H           9.16563041969909  -13.85369266131159    1.82770802100722
H           9.31301607339085  -18.38241200377511   -2.73211675239387
