81
 SCF done       -165.084663578649          0.000945678116
C           1.45500091807600    0.84369421409708   -0.86581795485272
C           0.53980970865042    1.59758633718315   -1.53497628177030
S           1.26010462205042    2.40510839291788   -2.87750398011162
C           2.82928148539561    1.71222001364009   -2.53748943018853
Cl          4.17726306503653    2.06229595108194   -3.49866367079821
C           2.76684810502305    0.90992754771041   -1.43722878627407
C           3.69770207507725    0.06613841804779   -0.67644374188160
O           4.84851907104442   -0.17754950963029   -0.92768345193695
C           2.85090059596433   -0.52042071623405    0.42324682382534
C           1.48567556404529   -0.02245443989246    0.29358392923073
C           0.42527293681494   -0.25232845654411    1.12654630271724
C          -0.83945985959617    0.32540523593154    0.88001178319854
N          -1.87460536616029    0.78234887131608    0.69236562195014
C           0.44877128331773   -1.03645858895185    2.29857803123226
N           0.39827864606718   -1.64495266638359    3.27011482460728
C           3.26498426133902   -1.46772976071298    1.29591725805145
C           4.61956926525658   -1.85238250345326    1.52603332439475
O           4.88734191607795   -3.07362882111431    2.04405693998099
C           6.22171849375911   -3.04748041106997    2.21003862356564
N           6.71775911646496   -1.88390010323695    1.84405410588326
N           5.71685902387543   -1.14189259083084    1.41722759069842
C           6.90250540904488   -4.18795132019697    2.72004479266533
N           8.24320124327122   -4.23418923450505    2.99600694951912
C           9.20734187427087   -3.18459641268554    2.77219297274321
C           9.60272673255757   -3.07782107855929    1.30308774696286
C           8.61177734479450   -5.48688174345247    3.51961112428243
O           9.74489086811211   -5.77119681980287    3.86284585375943
C           7.38128213359919   -6.23981830435261    3.53915845944381
C           6.34412594434809   -5.41584418732010    3.03725652239793
C           5.11534827390324   -6.18801926998279    3.06724395159749
O           3.98123590370079   -5.93476501521817    2.73805108984604
N           5.50668683515880   -7.44033908889018    3.60755001317597
C           4.53835112370367   -8.49810983235187    3.76302470542852
C           4.60286787374469   -9.49545928428790    2.60885579736463
C           6.84668723964997   -7.47764121031181    3.88619342482840
C           7.64643470879405   -8.50583227764685    4.45788972643073
C           7.38384874198751   -9.77901109082532    4.81098479502759
C           8.44221352375143  -10.56274932111710    5.42495685687881
N           8.17136200779047  -11.82265755638232    5.77590682471253
C           9.14695266776135  -12.50049492177285    6.35380229391970
C          10.39330196112466  -11.94968368967163    6.61752100905741
C          10.58335718239205  -10.61852062245316    6.22236759897975
N           9.60536712713928   -9.95758689870700    5.61296256275992
C          11.80571584544366   -9.87963910939294    6.47054647267699
C          11.90386978089463   -8.58210591674812    6.11926027072329
C          13.03621547828701   -7.75919384300322    6.36853680507975
C          13.06640446149754   -6.40353708288148    6.31765514688125
C          14.39006866184848   -5.70347332359614    6.25651210495373
O          15.47016641411873   -6.19293931557699    6.48265290831486
C          14.06113220853713   -4.34258398339359    5.82068931774255
C          14.73888441003834   -3.20853765341002    5.48492316558546
S          13.62361831468120   -1.92934897848881    5.07045772107198
C          12.25528702013999   -2.93963885853248    5.36773295894523
C          12.63677358900368   -4.18742546472714    5.74926962025725
C          11.99979019320880   -5.42521062072255    6.16235842438988
C          10.67859732764061   -5.53536248521167    6.49587393284364
C           9.78062021887241   -4.46402065273103    6.29547498890522
N           9.02740978096885   -3.61370396303734    6.13249565123474
C          10.06436449294181   -6.62139226159474    7.15350952769930
N           9.50123048966378   -7.42374417105734    7.75028107293623
Cl         16.41483077375751   -2.96556134555140    5.44479120315869
H          -0.50526109519443    1.73283231092386   -1.33837795856487
H           2.55079882086793   -2.01355857634889    1.89946663401988
H          10.07879035003108   -3.45237744797014    3.37490640397369
H           8.78820030628570   -2.23775847353345    3.11702083294303
H           9.96473627015451   -4.03633282302981    0.93800003630393
H          10.39278818222316   -2.34071490160798    1.19481178528869
H           8.75293217881789   -2.76049138616816    0.70601016077733
H           3.55786200881788   -8.01290794573666    3.76896848644205
H           4.69536817633878   -8.99045306370239    4.72518655728682
H           4.36202776704930   -8.99460017678261    1.67433908444168
H           3.88255118189532  -10.29251707329332    2.77024020379812
H           5.59605398218076   -9.93013734609603    2.52212662006446
H           8.66261484444464   -8.17356531466500    4.63556940821585
H           6.44098247821212  -10.28506143823045    4.68777409897740
H           8.91268191830169  -13.52278452845618    6.62299572768731
H          11.17124978962890  -12.51325672688553    7.10596169424598
H          12.60010060917557  -10.38830683995997    6.99884405482272
H          11.06383966278535   -8.14003002820800    5.60189967415667
H          13.98614677953031   -8.24581625883021    6.56558231155137
H          11.27068467875486   -2.53618016487350    5.24083995692129
