101
 SCF done       -201.790928527883          0.000893365160
C           5.22939565802485    4.54985509782052    0.61920906015139
C           5.03314919362421    5.89211529292518    0.72879503468323
S           6.53428382971137    6.74050378820019    0.77375307399168
C           7.45093750391352    5.25591645468442    0.65259481327450
Cl          9.14361552011136    5.26408242050100    0.62695888565735
C           6.61406300645542    4.18411985404581    0.57356887929185
C           6.74209045204344    2.72625228520054    0.47722113765631
O           7.74466984783411    2.05945267992644    0.57734471235261
C           5.33288596566949    2.22942343794861    0.37531693912764
C           4.41851803444460    3.35324842495302    0.52511452313336
C           3.05015095922135    3.33368890173619    0.52954143763522
C           2.29875327290161    4.52144697178770    0.65865968805707
N           1.67197290034078    5.47596123003131    0.76831759013101
C           2.24156620653011    2.18551442604502    0.41147462559154
N           1.52287691286204    1.29521991102754    0.31625531953444
C           4.98973489997740    0.92235091113124    0.26864902574344
C           5.88465605166115   -0.13991967503337   -0.09461842353622
C           5.74457862248509   -1.41778100710534    0.44619275897806
O           4.79641279164558   -1.54240362879036    1.37812359555660
C           4.79187435644134   -2.59362053072400    2.33237608091000
C           6.59706741956331   -2.51060763088319    0.02704593328193
O           6.12354110188647   -3.72081915315816    0.37298826019720
C           6.53236801131017   -4.90334564793028   -0.26947481462371
C           7.74129537461639   -2.29451769814978   -0.74545883563381
C           7.83762962030876   -1.01836722045520   -1.36670709168475
C           6.89457189978059    0.02881086545726   -1.07442168152251
N           7.19109801080011    1.05065669996307   -1.84724537996611
O           8.25625191462338    0.68714306401583   -2.55473292545639
N           8.66582125885039   -0.55151957741203   -2.27503861117564
C           8.83723687404554   -3.22934613385545   -0.71907332213403
N           9.71100792898237   -3.57132556023365   -1.70768260993060
C           9.65762095372527   -3.23640324734368   -3.11416826509280
C          10.82849187706108   -2.35024795897060   -3.52395475201448
C          10.70571777878193   -4.46845480196877   -1.23356817892709
O          11.55734893192662   -4.96001476269136   -1.93899793578893
C          10.40140587556255   -4.62900439933586    0.17045618650860
C           9.23982524005764   -3.87888193961945    0.44881202016782
C           8.95240430577162   -4.01276032255006    1.85881749459387
O           8.06661532419645   -3.55474191441443    2.55357938633226
N           9.96498476212325   -4.86375227179142    2.34330835998296
C           9.97992246528999   -5.22225855264624    3.74204047905660
C           9.26330937412302   -6.54670294142619    3.99672906330017
C          10.83664992802739   -5.24679075056514    1.34525020186219
C          11.96732692518547   -6.09349078652866    1.37856622398980
C          12.43258441116536   -6.89810849807128    2.37496393473519
C          13.56377968022243   -7.73643862398269    2.24112919714667
C          13.99369319618730   -8.65222526252796    3.18156816460695
C          15.12856417833459   -9.34526290741090    2.68235839424813
C          15.40588401727117   -8.76355940025551    1.35168187728300
C          14.46944639184048   -7.81650360380713    1.09792919692208
C          16.46045900058276   -9.09852391214192    0.49323071345671
N          17.31749776706993   -9.34058286268102   -0.23175790306172
C          15.80484493190542  -10.38733608266132    3.27462657358886
C          16.87294902511839  -11.15553661134912    2.72237922962015
C          17.16266925153640  -12.19941788500129    3.57131336614490
C          16.31250466297039  -12.07032050980049    4.74593564341876
C          15.51226891876101  -10.98271921198789    4.58713514591085
C          14.59032270032201  -10.52083850750290    5.53234381875272
N          13.84661643229050  -10.15948188052623    6.32996799961167
C          18.14880484392047  -13.20182359060043    3.36305683127344
C          18.17165340749503  -14.46324557007861    3.86781313620659
C          19.45709944500036  -15.23199395818204    3.89845331866680
O          20.48141077859678  -14.94065591759068    3.33198025375817
C          19.18388488354373  -16.35540897796252    4.80404835184009
C          19.88019987135735  -17.38851657832853    5.35657422020576
S          18.83683808961216  -18.35675951836994    6.37243298914419
C          17.46948501942047  -17.36094865417960    6.02819690746687
C          17.80242124380895  -16.34318709039639    5.19083631230582
C          17.13536957870716  -15.24758902195008    4.51349787497533
C          15.77977247519535  -15.14125916458136    4.34429575726645
C          14.89042397305431  -16.01418625120792    5.00485359630041
N          14.15830675710872  -16.70740079219749    5.55190240052799
C          15.14979313089498  -14.25700034956552    3.44552596903468
N          14.58581958288139  -13.61394919876364    2.68001504864251
Cl         21.51696336680238  -17.77319370653995    5.15419667418611
H           4.11588364895985    6.44367098221761    0.78691666671585
H           3.97095871232626    0.61547168043741    0.46805478432783
H           4.28354327723116   -3.47671973964361    1.94200747507036
H           4.23136615017698   -2.19792619039069    3.17920216490109
H           5.80276570663652   -2.85735345406277    2.64520024948659
H           5.66089703779374   -5.55978789589366   -0.25291855345021
H           7.35320534622911   -5.38707380900284    0.26679095258551
H           6.83703181331434   -4.72053994195741   -1.30317471685018
H           8.71047109690484   -2.73943759596716   -3.32025966426660
H           9.70586883593928   -4.17775612436064   -3.67270107216483
H          10.80118387477390   -1.41610114854247   -2.97208067378780
H          10.76015339286885   -2.13241632113534   -4.58540266736395
H          11.76645099755939   -2.86293612222711   -3.33086877367345
H           9.44688478085340   -4.42197960616333    4.26459447602318
H          11.01131043780626   -5.24422734978901    4.09947995456943
H           8.21204306002085   -6.45163826628512    3.73543597989885
H           9.33575201741688   -6.80821716159208    5.04864998840279
H           9.69382878728213   -7.35104939481555    3.40396573832557
H          12.48530068948530   -6.10486171504891    0.42806339913239
H          11.92673786150577   -6.96667394830638    3.32581520286345
H          13.53231498589206   -8.83870449384790    4.13156318004070
H          14.40717420471453   -7.21670059240155    0.20947861195371
H          17.32172905623148  -10.98542992568179    1.76350575295857
H          16.36113843489288  -12.69816451975443    5.61704936687259
H          19.01586125662270  -12.91394522670369    2.77674552765389
H          16.52247438064614  -17.59215262277457    6.47426369278597
