82
 SCF done       -175.113709957681          0.000639936638
C           2.86515933616503    2.88627029455333    2.19040371033914
C           2.49696208987804    4.09608430738766    2.69312160036541
S           3.61085434763789    4.63820338726476    3.89394790310681
C           4.59912058681529    3.20758346861441    3.71721298907916
Cl          5.99940288550390    2.98141844588607    4.64201831976050
C           4.06832221553176    2.37496994336842    2.77675448581904
C           4.39922768088338    1.07305271651149    2.19140436151759
O           5.35759027557285    0.37406405542488    2.42674576519680
C           3.31619346486906    0.82500311556926    1.18448028236472
C           2.37589221781892    1.93994655092514    1.20947996382345
C           1.21858445922319    2.08381817621728    0.49392297855439
C           0.39915833260085    3.22312999428273    0.64601086582118
N          -0.27640608354594    4.14317506422034    0.75833714242966
C           0.70630780003729    1.15659834656538   -0.43573934036788
N           0.23689294756751    0.43894753819968   -1.19859195684876
C           3.31041269843690   -0.20838064204493    0.30764552989668
C           4.21254181855515   -1.32780513638224    0.33531762802239
C           4.52608270820301   -2.04771103402989    1.49983848270359
N           5.36271306969747   -3.05483898320413    1.50205834392745
C           5.90347909863390   -3.42801985803777    0.33945023299085
N           5.62766878603726   -2.84764167595061   -0.82955888254968
C           4.81636466819628   -1.82374595957937   -0.83513689903700
C           6.81173615261657   -4.54718090221617    0.29202041752600
N           7.40638453637620   -5.13816582028453    1.37124600397652
C           7.25563823646640   -4.79836648113875    2.76664432806790
C           6.04168006097453   -5.49092459843123    3.37744424234392
C           8.22086385994312   -6.21910394693554    0.98264210988509
O           8.86912984926512   -6.88686629899504    1.76180615789865
C           8.08698493220298   -6.27079074083761   -0.45716326443601
C           7.22603986046637   -5.21790632603714   -0.85282187338658
C           7.07287563215534   -5.28077038162729   -2.29724060625211
O           6.44987623786123   -4.62331581357936   -3.09278734202613
N           7.86909845270354   -6.39300603640483   -2.67203677405174
C           8.00590518822915   -6.76640600086363   -4.05896598137943
C           9.35204215777135   -6.33909930765756   -4.63815384386787
C           8.46775661063208   -6.98719233681329   -1.59251636425443
C           9.28642612122402   -8.14268506628905   -1.67082317877111
C           9.86025574551680   -8.70921764130966   -0.57642153561516
C          10.65138668139152   -9.88315561723565   -0.64133359122516
O          10.92854416529347  -10.47776618190475   -1.81527938345265
C          11.66359698612438  -11.59086909645421   -1.57475328595908
C          11.88638378984285  -11.70882107341594   -0.20844889961030
C          11.23752408739358  -10.62593019941692    0.38814954332413
C          11.18298774951646  -10.31325979287578    1.84466944511267
F          11.75243926482405   -9.13022324153647    2.13005106705401
F           9.93102521223092  -10.26393408356621    2.31719663741860
F          11.83421446450989  -11.23343559818517    2.57102370210245
C          12.15291871069631  -12.40771907707152   -2.62154598888927
C          11.88330155928624  -12.34134687708626   -3.95348071255771
C          12.83759892027138  -12.97577260175626   -4.92009400726803
O          13.69100058750953  -13.78690047626380   -4.65893874986010
C          12.52550921887033  -12.33454451284991   -6.20377968470339
C          13.01979041499898  -12.34334458351071   -7.47416813002663
S          12.09034725948433  -11.27600387720342   -8.50088433974310
C          11.03723617038102  -10.83982594970004   -7.20402032459413
C          11.38869229141359  -11.47213311488324   -6.05346461624945
C          10.89351845470586  -11.58497047359269   -4.69494339654748
C           9.63296230192090  -11.23285594117551   -4.29243933131920
C           8.79154581286926  -10.44844833403818   -5.10296400648487
N           8.11545018285859   -9.74736959725342   -5.71100115548832
C           9.03189558291692  -11.66338156759787   -3.09200284535762
N           8.48056522036719  -12.04581914879024   -2.16136108769002
Cl         14.33256234544339  -13.22519526124457   -8.07917065213524
H           1.65351597713992    4.70860964729495    2.44320457709717
H           2.59829717769561   -0.20596706053807   -0.50871570789801
H           4.04833924492395   -1.82545210162053    2.44397978414511
H           4.65056775237771   -1.35335804101158   -1.79535051220876
H           7.16193519685670   -3.71614213671500    2.86232021147139
H           8.16637326132025   -5.14226296581165    3.26485598171759
H           5.13311363508100   -5.15465130329129    2.88539079999772
H           5.97836778682758   -5.24994752619027    4.43436183162755
H           6.13208857704654   -6.56899805644542    3.26924296547461
H           7.20189935577920   -6.24759920526336   -4.58794566387310
H           7.85890265897311   -7.84337001547928   -4.17531686274181
H           9.45971897168192   -5.25904197058727   -4.57587472508229
H           9.40548811987726   -6.63646871506800   -5.68143782757564
H          10.17769343431559   -6.80025013351118   -4.10004783493349
H           9.43813037882905   -8.58935526845500   -2.64337150233985
H           9.71057365122826   -8.27945547712400    0.40528306968605
H          12.43535414302744  -12.48330699171418    0.28712084573843
H          12.91355777376322  -13.12184600947389   -2.32862602212212
H          10.24119641563361  -10.14401478552787   -7.38153562031713
