100
 SCF done       -211.112187291349          0.000904661033
C          13.18810531400538   -1.39810109505671    2.28495943596866
C          14.37219595340562   -2.06949922417107    2.27530557685403
S          14.12262504056271   -3.77481751997375    2.21578948457913
C          12.38703767131003   -3.58995756141355    2.20221290073710
Cl         11.35377098187055   -4.92817476674885    2.14199389843189
C          12.04755974483858   -2.26802556039909    2.24417688940648
C          10.81822897239482   -1.48257216560430    2.26019877590476
O           9.66919327695288   -1.86156947186643    2.26240595895522
C          11.28156415044645   -0.05389447646863    2.30216864138891
C          12.74309452053241   -0.02137689603170    2.31093017684427
C          13.55268356696362    1.07649488837349    2.30918055332916
C          14.96019794254619    0.95251297975253    2.31056404237600
N          16.10300528815168    0.86240528266011    2.31667983810067
C          13.10721247071198    2.41526270056591    2.28599479692888
N          12.80419835189361    3.52109751791673    2.25705644024712
C          10.43082191770723    0.98306164405829    2.34973013694320
C           8.98134089286695    0.82840027076095    2.32647916940563
C           8.24445052966789    0.34261219206985    1.24020624277859
C           8.87612407771455   -0.08914058697961   -0.02647654266054
O          10.03128541924747   -0.03298958552153   -0.32562498713876
S           7.60978586507353   -0.71640983839261   -1.11763026219930
C           6.28285578753437   -0.33070134855040    0.03135194605535
O           5.13247626116055   -0.51496604165391   -0.23667667814404
C           6.85738337669207    0.22223470645639    1.27285419001503
C           6.07624744219403    0.60984785746744    2.38801938940510
C           6.83014106952793    1.05186170733309    3.49069853103451
C           8.21539823889171    1.15528013998289    3.44232230806223
C           8.69477715410202    1.54903374780731    4.78716690696346
O           9.80926316450740    1.73915201299886    5.16350004358214
O           7.59168821908286    1.63822807400830    5.58989830272227
C           6.43750571318092    1.32817919328510    4.89775683849789
O           5.37844391321627    1.26783283715260    5.43702221736576
C           4.64091768783823    0.54588812499913    2.37764554482109
C           3.87439721268440    1.48121314709208    2.98189497389090
C           2.45829100204662    1.58971123042707    3.03133852434305
N           1.48330116506231    0.66810065575248    2.73724714750471
C           1.63722347769347   -0.70560341959108    2.31861816122052
C           1.69401690784959   -0.83978056728662    0.79861117621723
C           0.19218045764937    1.19468855886570    2.94178645594952
O          -0.82656259747926    0.55918213833440    2.75886205765911
C           0.41558279167987    2.55016367973017    3.39586269534375
C           1.81412449833957    2.75204668875937    3.44334719349264
C           2.06591887740333    4.10320887793936    3.89499888535268
O           3.08723357476166    4.73064664183847    4.06548990448861
N           0.77455877230743    4.63380463613509    4.10780242161675
C           0.59886358428915    5.96507644147060    4.63516354028409
C           0.30726407189385    5.94580286652060    6.13389272789815
C          -0.21152843094621    3.72262133991770    3.81594715137772
C          -1.60088797675667    4.00431816306287    3.92653034636343
C          -2.55049678524807    3.09764088732102    3.60095916306449
C          -3.97387599767098    3.31152330682184    3.66581916082481
C          -4.82332401443984    2.36684339467684    3.08625645535303
C          -6.19860625000710    2.52746084498758    3.10489131420454
N          -6.97445820111936    1.48390335817747    2.48524281345905
O          -6.42755793702693    0.81526317057938    1.63799088639150
O          -8.12869680084000    1.32861927418544    2.83793264803299
C          -6.80251804870369    3.64243977537368    3.71980583623116
C          -5.93600701628946    4.57829771844384    4.30055808586945
C          -4.57091757804505    4.42320236959034    4.28028217223036
C          -8.23304864918692    3.84572025137684    3.73335954384484
C          -8.89656959898264    4.53819249977697    4.67707592316342
C         -10.31607855290675    4.73059647485753    4.66076553066404
C         -11.28194523244323    3.86654013966056    4.27503399582745
C         -12.65626984756097    4.40245531759259    3.99179751563704
O         -13.06209214193510    5.50425358594993    4.27126939517098
C         -13.32753657280287    3.31825208606261    3.27165074654234
C         -14.51787108478593    3.12475805385824    2.63457511881764
S         -14.60439832661356    1.50904156259597    1.97733681530277
C         -13.03730215766655    1.10854973646730    2.58171219947440
C         -12.48245889834887    2.15936584733576    3.24126809094766
C         -11.26184930415530    2.43860097727915    3.97645119223866
C         -10.42019827810974    1.47998706438514    4.46356597372414
C         -10.61756809101929    0.11334402999773    4.16684028877991
N         -10.78336688772920   -0.99924266642824    3.94597712047309
C          -9.34769323672048    1.71299128068550    5.34615054419027
N          -8.49019599234059    1.84415499786012    6.09737664116830
Cl        -15.79276814505688    4.22447928121900    2.44762017666910
H          15.37204046378601   -1.68329230567685    2.29993988889342
H          10.79053814743437    1.99746019643437    2.46441670158891
H           4.20764750700578   -0.23238019577141    1.77117713439016
H           4.35655300620329    2.32873302123168    3.45166921840032
H           0.75290929128972   -1.23551630493224    2.68654267471507
H           2.52398201720861   -1.12718315662042    2.79609675533307
H           0.76907802615210   -0.46810692042389    0.36490938762694
H           1.80585891054668   -1.88626697747241    0.52935005145563
H           2.52461290315337   -0.28223528841857    0.37309629728050
H          -0.19645942789826    6.47729800405401    4.08619300940291
H           1.54227655138144    6.48760360072332    4.45361747093680
H          -0.59701511132837    5.38095399869387    6.35039418699397
H           0.18341714117423    6.96173532559280    6.49848738385443
H           1.13599797798247    5.48498321380902    6.66532902724614
H          -1.87414726319162    4.99221171322194    4.26686958543643
H          -2.23848895984264    2.12607287613556    3.24015316741737
H          -4.41004773039665    1.48806188975111    2.61226300333016
H          -6.35826644675549    5.45987504370842    4.75635347940598
H          -3.95544723472551    5.17106327027816    4.75494796403135
H          -8.80544407655884    3.39513439956660    2.93405021452046
H          -8.36193693700172    5.02433147948489    5.48201666872441
H         -10.67035095445530    5.71459040522317    4.95611240175604
H         -12.63413553863596    0.13266727295602    2.39784490859930
