103
 SCF done       -210.672858032981          0.000995550479
C          -0.66313848351811   -0.39435593099666   -1.50079585783540
C          -1.81458853213144    0.04600212396354   -2.07663241947213
S          -1.96241926321308   -0.53109026115104   -3.69578132290211
C          -0.44366142862387   -1.39037447908959   -3.59920731807496
Cl          0.15911364007702   -2.27289145737542   -4.91094242229590
C           0.12362304110171   -1.21632895948290   -2.37155382559840
C           1.33576329268127   -1.65987011397172   -1.68321621207284
O           2.16358259499077   -2.45348986849344   -2.07004262448690
C           1.26053074279253   -1.01758907068394   -0.33137595232631
C           0.02261460517143   -0.25807302677602   -0.23245403543333
C          -0.41181329770506    0.50569058264505    0.81635585111203
C          -1.63832659964145    1.20178437117599    0.75744991426589
N          -2.63641489691866    1.76616566377219    0.72809080228994
C           0.27915980800894    0.70087495181869    2.02937996550269
N           0.79944244349038    0.91010534179023    3.03096948923830
C           2.14152419854253   -1.25337410541527    0.67782157581962
C           3.41714224834997   -1.85679684490382    0.50926984653175
S           4.11753315546959   -2.86503816340080    1.73338211398773
C           5.53385184648939   -3.20448517941587    0.77129002316470
C           5.47094784861996   -2.47387564396710   -0.41329682632254
C           4.29960867787184   -1.72121968459339   -0.55190981841951
O           4.10668622267743   -0.86097236339249   -1.58671151887779
C           4.99939912385196   -0.81841452090029   -2.59682171863214
O           4.82673051936461   -0.08591128190048   -3.52504005842294
C           6.25178035114857   -1.69968788614044   -2.49600232700895
O           7.07643969291038   -1.72883521777908   -3.36052708227473
O           6.44251931453986   -2.42896684511512   -1.37003070215276
C           6.50323346224202   -4.08869835958064    1.32989409357983
N           7.56930632346408   -4.71890926754289    0.72930199047621
C           7.87413957677791   -4.85338700240604   -0.67756768854179
C           6.79216192818874   -5.62903200168193   -1.42151834157289
C           8.32165606982273   -5.46158224578097    1.66448870422001
O           9.31127085020719   -6.10398971367584    1.36499287060894
C           7.65287454442077   -5.25958175318801    2.92395926634919
C           6.52573582568114   -4.43578606241375    2.67643004077907
C           5.85177870502679   -4.21329037027848    3.93220871535367
O           4.83523637374631   -3.60426050919373    4.20365866074944
N           6.63885853812856   -4.89655450724080    4.87565064664723
C           6.25767989761352   -4.95519470132491    6.26790093652401
C           5.60822419255020   -6.28867526002758    6.62613660186113
C           7.70135007511717   -5.53185009441096    4.28774826812622
C           8.66993731228735   -6.29683279293358    5.01162369179861
C           9.65406820663192   -6.94519286333082    4.37677896101885
C          10.74661374934236   -7.73186176721646    5.01513022694379
C          10.74345156455552   -7.79417310700158    6.54199508960992
O           9.79844827207083   -7.90128440518615    7.26518708684015
O          12.00342994455223   -7.71150684069253    6.99524137157413
C          12.94283798477736   -7.67246488205552    5.92527007615577
C          12.13942885199540   -7.14067749933055    4.72839180324481
C          12.73161350935193   -7.44665373950419    3.36023646688052
C          13.11028336992115   -8.91177791779075    3.19430014755384
C          14.00208989591358   -9.44078350080860    4.31118349368286
C          13.53503266861048   -9.08850201643756    5.73513408886093
O          14.69871482925104   -9.21998209502814    6.53865329393983
C          15.82611391021981   -9.16301020339815    5.81344554752696
O          16.91499874988110   -9.21617894475396    6.28989117711389
C          15.48027978140167   -9.00330543464385    4.32070467527379
C          15.77711319144965   -7.59706277120198    3.93264705172507
C          16.44890714859671   -7.26490441509174    2.81787651510852
C          16.77086097836348   -5.91038557059481    2.51729661211403
C          17.51121396154395   -5.38293135085497    1.51056609919498
C          17.44403852931661   -3.89230127169896    1.33301312196337
O          16.93524745788272   -3.11138080345792    2.10083098236122
C          18.07219082207981   -3.64035249000534    0.03682157531237
C          18.29893321604911   -2.56847039273589   -0.77458595404687
S          19.12336048372064   -3.07002823972942   -2.23075593259497
C          19.15655990582825   -4.71795238625342   -1.72118183062860
C          18.56600441982360   -4.87196845472481   -0.50484745636944
C          18.32080548877124   -5.94947050966833    0.44060279642756
C          18.90454746085092   -7.18250695588475    0.33231364111786
C          19.69448504874834   -7.51875776119352   -0.79089711231468
N          20.32759896270125   -7.82643683388673   -1.69640419115393
C          18.88704114588311   -8.23627285122020    1.26749416838420
N          18.94458736039252   -9.14250485036254    1.96957362515340
Cl         17.88542366829940   -0.94861882468821   -0.50597866372840
H          -2.58739537052339    0.66485933329827   -1.66580893008002
H           1.87197600140855   -1.00543371212820    1.69645429435214
H           8.81638817749710   -5.40776874405379   -0.71367049069275
H           8.03006011632908   -3.87428196231060   -1.12885133514700
H           6.68047773523225   -6.62417066289022   -0.99660577635563
H           7.07149702910115   -5.72488355982085   -2.46661313987210
H           5.83248924697190   -5.12098900844193   -1.36652280210118
H           5.54055835548176   -4.14318352173677    6.41626328812640
H           7.13493131248795   -4.77295925775933    6.89396765324705
H           4.73053896493611   -6.45472168280818    6.00613310845580
H           5.30011838276437   -6.27411386956982    7.66747774111870
H           6.30214193482388   -7.11315678642934    6.48116153355593
H           8.57847472569044   -6.34473358964400    6.08565196714218
H           9.71475892656353   -6.89740332964774    3.29691831225796
H          10.69378963828726   -8.76391387628973    4.64545552379306
H          13.74349557570178   -6.99655725782290    6.23855878806667
H          12.05774013291851   -6.05257071199579    4.83562779706021
H          13.61418939818885   -6.82349028382752    3.21301374332941
H          12.00570838911130   -7.17045540874451    2.59364047373647
H          13.62314993186810   -9.04584339395444    2.24103011745147
H          12.20531190939219   -9.52221084440965    3.16187391328121
H          14.01209142907349  -10.53474544808175    4.24225357029002
H          12.80401642482538   -9.81053512505843    6.11529328843269
H          16.09912470980753   -9.67435943510281    3.72184319736493
H          15.49420585756451   -6.82282374961110    4.63454066165576
H          16.74127326768146   -8.03718635884251    2.12512163754572
H          16.32779867165313   -5.16252026574422    3.16994988107644
H          19.60465004144375   -5.45164302897010   -2.36117257357302
