86
 SCF done       -194.915903578158          0.000945304716
C           0.22283107597893   -0.31602813994673   -2.97423871805123
C          -0.97763407722854    0.23092422069317   -3.30966076747393
S          -2.22633623805204   -0.30735827783126   -2.24817155254932
C          -1.11481741614969   -1.29879766767458   -1.33248808936191
Cl         -1.62682540427839   -2.21112830779512   -0.00333241440418
C           0.14535883865248   -1.19094655847784   -1.84192941883000
C           1.46513763356015   -1.74934762734393   -1.54994348805518
O           1.75184425777722   -2.62426240364704   -0.76681524749234
C           2.37973227243019   -1.09933477885938   -2.54531662649015
C           1.59386589415460   -0.25905314892827   -3.43724877955658
C           2.03793629708741    0.50115544286156   -4.48602504960239
C           1.15053595546431    1.29155173886624   -5.24775209876038
N           0.44166212196854    1.93586519869257   -5.87846807576063
C           3.37507985629765    0.59315301938190   -4.91978158782884
N           4.44841718252785    0.70815972989562   -5.30996039247957
C           3.70689798751584   -1.37471606870157   -2.65556078806851
C           4.48207759820647   -2.02942426013646   -1.66143803960244
S           5.84011378381448   -3.02299411857071   -2.09724417910392
C           6.21036222853870   -3.41381992764396   -0.44549968292206
C           5.34014609695903   -2.72996350836047    0.39562625339238
C           4.38079445577940   -1.96426181561618   -0.27959230829241
O           3.50129161029885   -1.17456820762810    0.38550613940203
C           3.46617575261052   -1.21883509381805    1.74020565423373
O           2.64593588621766   -0.58472107214255    2.33147597173533
C           4.54877278095408   -2.02642052948438    2.47975303523869
O           4.63400039343462   -2.00130415438895    3.66946579868409
O           5.45611443356769   -2.71200518655031    1.74555567403609
C           7.17974173939821   -4.35506085048879   -0.00447909101994
N           8.37388340241359   -4.65037245764540   -0.61123103472556
C           8.90118843831557   -4.09970176767246   -1.83675788167326
C           8.51465055891987   -4.94740856414466   -3.04519059475328
C           9.10867164466737   -5.59731844257214    0.12982833822408
O          10.20618930393978   -5.99831781152734   -0.20227295603785
C           8.26404079804288   -5.90444126505624    1.26074565696084
C           7.08580152186449   -5.12760946939343    1.14790025572021
C           6.18752370035517   -5.51063685237646    2.22332852612171
O           5.04720370787787   -5.20321149251821    2.47863664565455
N           6.93489045194318   -6.44423209641480    2.97078574301817
C           6.37993221706217   -7.06908748618557    4.14915658383499
C           5.83808201330022   -8.46515258329598    3.85459845199819
C           8.15412134068713   -6.70440197013356    2.40152553632457
C           9.08460319143224   -7.63505097674639    2.92661738081256
C          10.27373870243332   -7.89191826296546    2.31880814583508
C          11.22352910814507   -8.82813255394136    2.79268974967664
S          12.73082084160711   -9.04980313273255    1.96391732704153
C          13.30197868832273  -10.24166254743757    3.09360062959401
C          12.31889813760912  -10.46593101176118    4.05262346083544
C          11.17189756188060   -9.68518519746034    3.88956733981838
O          10.11224844671255   -9.78603916712981    4.74356455127560
C          10.16662699566388  -10.65651282891572    5.77776369310229
O           9.24711556543823  -10.73584401817142    6.53630385855112
C          11.41263200980391  -11.54056252901570    5.93249889236247
O          11.50761701289111  -12.34640042032798    6.80821110067824
O          12.42144081299857  -11.40361006786885    5.03574675147419
C          14.55357659218465  -10.87351530986493    2.90766992180608
C          15.33130159155804  -11.56865068346954    3.78064925713549
C          16.38002687390252  -12.47786411388966    3.19639482848851
O          16.73651956701023  -12.49940864330208    2.04450720380905
C          16.79572221184429  -13.32117521957907    4.31799992833743
C          17.60889405815465  -14.39832879571372    4.51690440639147
S          17.58329985876941  -14.88101504287610    6.19596110584989
C          16.48507646664451  -13.61604572877679    6.61207013689615
C          16.15564497541994  -12.87519067622911    5.52133698966437
C          15.34511389939515  -11.70908231446719    5.22325889748094
C          14.89646187846760  -10.82447132760926    6.16874199027560
C          15.07529564688019  -11.06162195921220    7.54883809863143
N          15.21750522004009  -11.23132197787599    8.67366494716996
C          14.28580208329518   -9.59399390398656    5.87629018495993
N          13.76711496666720   -8.59461382434317    5.64978011680416
Cl         18.54835731498541  -15.22154032152149    3.37442707210328
H          -1.21768833326642    0.90901593264312   -4.10455016679098
H           4.23891313353367   -1.10284945866889   -3.55837233792295
H           9.98982515190305   -4.09696778867269   -1.73118427345206
H           8.54804161056165   -3.07293183645987   -1.95273316310658
H           8.92233694115859   -5.94913425708123   -2.93730353796824
H           8.91883777991512   -4.50125530514410   -3.94862909972779
H           7.43371497159982   -5.01448442773025   -3.14265119088422
H           5.56310310272754   -6.42125877899767    4.47828088302873
H           7.13966519060899   -7.10473036157203    4.93386034367286
H           5.04754467861072   -8.40889933230619    3.11039023460825
H           5.42980888614740   -8.89599556677736    4.76408474986828
H           6.62226768370406   -9.12010082523458    3.48141745068863
H           8.82333772085241   -8.14845747976921    3.83859722500681
H          10.53925578520558   -7.36606381288838    1.41032059103816
H          14.93061753893397  -10.85400542532147    1.88874654162353
H          16.15105581169997  -13.51924411640729    7.62609237964682
