90
 SCF done       -180.472664741984          0.000864178890
C          -0.26597881157274    0.80656510056199   -2.79887832166020
C          -1.19284709680463    1.65911229899750   -3.31518970015357
S          -1.84692044175024    1.04987158203302   -4.79034310769917
C          -0.85516726094619   -0.38683467007195   -4.71396422292147
Cl         -0.93113664714320   -1.57760204721585   -5.91558792172675
C          -0.06965211917817   -0.36512874689109   -3.59925062207906
C           0.93964932586445   -1.23419006822799   -2.98746816664249
O           1.33564240524742   -2.30317392495526   -3.38756099158922
C           1.31663495279149   -0.53347885984936   -1.71363693886404
C           0.60544352171832    0.74173369683281   -1.64553932905077
C           0.75448085262712    1.73509246514470   -0.71831312257203
C           0.00403493059642    2.92870092116576   -0.79633352362997
N          -0.60184403804906    3.90106949509919   -0.84532366860126
C           1.65116832744682    1.71320343988615    0.36973097832981
N           2.36934277925289    1.75962181797006    1.26367739954409
C           2.03396958912839   -1.08399538413973   -0.70728785454243
C           2.77753340054289   -2.32407499893061   -0.75804055922804
C           2.75093752430921   -3.17308750296495    0.34520416330822
C           3.42107288158800   -4.38584274598908    0.32567904080341
N           3.34638848410607   -5.18593138987760    1.51980800561044
O           2.43847813616263   -4.95522229116029    2.28948055658317
O           4.19238869441651   -6.04056055230222    1.69820980341621
C           4.17796368133750   -4.78912208431010   -0.79353561821637
C           4.24366814368251   -3.88932713603499   -1.86666941430674
C           3.56531843939333   -2.69348607106096   -1.85720282577852
C           4.81545680744646   -6.08326004083817   -0.86961948809987
C           5.95804302540849   -6.30722499845580   -1.55137894434593
C           6.68061022030058   -7.52441611088603   -1.70979696510909
N           6.54281779112119   -8.72821746495424   -1.06219454935752
C           5.63865669456561   -9.08803042004866    0.00583194498103
C           4.30690429632657   -9.60752527180725   -0.53260136075544
C           7.46552898486485   -9.68169302981780   -1.53828189885610
O           7.53495193996792  -10.81682054849076   -1.10906461912695
C           8.22295713415759   -8.98694652467077   -2.55389868686855
C           7.72365306076499   -7.66458350184150   -2.62022961511240
C           8.46936269832635   -6.94632166236002   -3.62846909733791
O           8.39630508163034   -5.80794953741356   -4.04048997983040
N           9.39160097705057   -7.89760856551095   -4.11039662162550
C          10.36732306912343   -7.54899467306844   -5.11420977475782
C          11.74071189873164   -7.27987990786185   -4.50361408947226
C           9.25578184866498   -9.11404163808306   -3.48126886266905
C          10.04233888997627  -10.25335157917260   -3.78717215052162
C           9.85900664871635  -11.44691813986870   -3.16699940596671
C          10.60875852487368  -12.61992778544962   -3.44928603098031
S          10.18654353104629  -14.12648500919474   -2.68857361694249
C          11.46131466810606  -14.99806521285354   -3.48609574718555
C          12.18144463097056  -14.11423293410656   -4.30519529665196
C          11.68836387638737  -12.79985477053036   -4.28462668722343
N          13.32254905714177  -14.38025256241031   -5.11380622483354
O          14.00342354047697  -15.36090950766666   -4.88582491474393
O          13.56900014194353  -13.57355537177148   -5.98859150590544
C          11.46445051156804  -16.39711540672268   -3.23081576167427
C          12.30919923022848  -17.34225856156018   -3.71070841943823
C          12.22512028859586  -18.73894206899222   -3.45674629920565
S          13.49423054723099  -19.71168420759474   -4.15738493194558
C          12.85094092184514  -21.20326463396269   -3.53488719862796
C          11.69680187324770  -20.94315265190325   -2.81566222766926
C          11.34441284709555  -19.56425339063668   -2.76943999166028
C          10.12884720228892  -19.27166601347690   -2.02478608589523
O           9.58421953636989  -18.22477826518139   -1.80847026324825
S           9.46026642504889  -20.82326213216141   -1.40319030053890
C          10.78042984633486  -21.83024731701246   -2.11125185930440
O          10.80146953451075  -23.01869323704975   -1.96893790841043
C          13.58852631470537  -22.39486020400613   -3.85728752172350
C          13.30352676045989  -23.64254178055138   -3.48672262971346
H          -1.54053821837634    2.59836238675372   -2.93304822471346
H           2.03081229848896   -0.59170450959893    0.25801968250694
H           2.18838743740624   -2.90937751811185    1.22933864764258
H           4.81542056182413   -4.16449968506783   -2.73871059626424
H           3.65570186267838   -2.02472366031568   -2.69723708194914
H           4.33081761975703   -6.88366642428611   -0.33638332259199
H           6.43773264232865   -5.48382680282364   -2.06636385592832
H           5.50298384710871   -8.23581895951731    0.67442088334486
H           6.13107183542583   -9.89217896224507    0.56099769988420
H           3.83440265743009   -8.88292671823717   -1.19263707288089
H           3.63616902390710   -9.82073526682636    0.29466982697338
H           4.47025262006493  -10.52449436473403   -1.09327446301775
H           9.99513063655255   -6.63860068291024   -5.59246224606971
H          10.42222300190551   -8.34270380805587   -5.86461585746450
H          11.67959390774700   -6.44883851517320   -3.80561664175439
H          12.44792773278963   -7.02405707111781   -5.28745116855153
H          12.10955237268560   -8.15268441270674   -3.96938660734134
H          10.79742193747084  -10.15199496602973   -4.55225174084879
H           9.09016117287905  -11.53904365044642   -2.41088629159107
H          12.14581435092440  -12.02018624386412   -4.86632761890103
H          10.66150148700072  -16.71011879800633   -2.57650701199720
H          13.14466618433847  -17.05786746063678   -4.33458465387145
H          14.46353984153084  -22.20284607092089   -4.46690637611957
H          12.44960013447507  -23.88568338931293   -2.88071755469922
H          13.93810251904543  -24.45734014973051   -3.79010680359982
