87
 SCF done       -184.095543102134          0.000515572712
C           2.28879232480810   -5.83980938721768   -4.37897582481293
C           1.15480421726570   -6.28005626457276   -4.99174954843037
S           0.97540389701786   -5.58658331699713   -6.55875771442901
C           2.46727633682807   -4.69465108049249   -6.40205955205941
Cl          3.01183097597188   -3.68952294684012   -7.64722608200934
C           3.04397815451883   -4.92525126075904   -5.18646017353317
C           4.22655083913633   -4.48203565216683   -4.44674905235779
O           5.17786474683252   -3.84657868927048   -4.83322698116340
C           4.05325406614635   -5.05815050492263   -3.07434438596549
C           2.95222100849021   -6.01967732733447   -3.10247935034728
C           2.55826624415016   -6.86985211032261   -2.11229057138804
C           1.38944503031835   -7.64936703847775   -2.24808896934303
N           0.42298410291413   -8.25915882639065   -2.34457463925002
C           3.23998082895120   -7.06832795724270   -0.89160914082681
N           3.75951517691283   -7.29346529215888    0.10480187786885
C           4.72274478668280   -4.61174357289168   -1.99466672755349
C           5.48525619569275   -3.37392192265993   -1.98151732374147
C           6.74465003049611   -3.26402920762447   -1.44711834645026
C           7.56168397916952   -4.40122070144537   -0.93174033195195
F           7.49639720187888   -5.47411343888449   -1.73477043068325
F           8.85551382649667   -4.07947616893389   -0.81329693588934
F           7.15449186471989   -4.81077934991077    0.27985732856634
S           7.35544648321564   -1.66067413617826   -1.42309998832908
C           5.88312106975043   -1.08720158255049   -2.13978331101756
C           5.70103987678550    0.29633037404090   -2.24971881932924
N           5.57713469008293    1.43644153769602   -2.28370134079796
C           4.98452658720349   -2.09854861928460   -2.41640069108978
C           3.67742213270965   -1.98693426613978   -3.03740860257321
N           3.39768946170261   -1.39272522639550   -4.24231393894985
C           4.19378535775301   -0.44710961682893   -4.99624735583755
C           5.31056284742973   -1.08575067757400   -5.81254975507966
C           2.11981718380838   -1.77804847168332   -4.71010397739515
O           1.69742040784781   -1.50460268129418   -5.81607450642564
C           1.55809408062303   -2.55351804187290   -3.63547752496589
C           2.54312145440344   -2.65972868057038   -2.61763241601373
C           1.99513281558322   -3.49372506109581   -1.57070415443034
O           2.46200847465729   -3.88393000234094   -0.52126784682206
N           0.71602129837097   -3.85936637625887   -2.03915316379950
C          -0.16587836589860   -4.64630823189222   -1.21003510536646
C          -1.30435785606328   -3.80753207343813   -0.63802282664579
C           0.46166821404947   -3.32801187995861   -3.28256408599940
C          -0.59095880200833   -3.60624382564233   -4.19833199843944
C          -1.66676409224868   -4.41250821373645   -4.11948169873161
C          -2.44221992591830   -4.65996464976444   -5.32326020242100
N          -3.63395108156491   -5.24425381380052   -5.19776074975033
C          -4.30366073916318   -5.47585149918058   -6.31300526371858
C          -3.80424316771466   -5.15567669140362   -7.56689023548888
C          -2.53512949185619   -4.56209093721691   -7.60399349967380
N          -1.87430726235994   -4.32317737198488   -6.47449739566247
C          -1.86896758702686   -4.20985873834713   -8.84080167042567
C          -0.72970387233314   -3.49028556769633   -8.84763970367404
C           0.00865831078083   -3.18346691247360  -10.02491504468959
C           1.02678004365600   -2.29512829609458  -10.13404950341401
C           1.97243934234305   -2.40183478613314  -11.29427556661432
O           1.79584633665603   -3.03743344865602  -12.30457896722574
C           3.14421627342365   -1.62622709735319  -10.87605126829362
C           4.40058100233984   -1.37782619962946  -11.34480365312679
S           5.26986200837167   -0.33631691700471  -10.24434769980782
C           3.92129703399122   -0.23908774791714   -9.16943790483492
C           2.87264988500051   -0.97030101280602   -9.62924408983869
C           1.51206389368060   -1.27132180885789   -9.21965549013955
C           0.80571774972885   -0.55907540636845   -8.29275281050186
C           1.41969830116982    0.48926777136787   -7.57226970881475
N           1.92231134711054    1.35302266491041   -7.00932975331281
C          -0.57083437912640   -0.69995283406707   -8.02462815906912
N          -1.69609546907836   -0.73685237863220   -7.80328978242775
Cl          5.11432902350975   -1.94598462258831  -12.77215651949970
H           0.41194496969482   -6.96425425560244   -4.63242790835584
H           4.62181658794762   -5.10410504900505   -1.03570435220799
H           4.60253555221550    0.29561662845369   -4.31030437818542
H           3.48759957422453    0.05699636801886   -5.66375889827476
H           5.98409659276447   -1.65593466358682   -5.17946253684123
H           5.87665797992224   -0.30563274610131   -6.31435677419878
H           4.90115714316624   -1.76061140116001   -6.55876470052262
H           0.45473986939310   -5.02654912521284   -0.39241902390051
H          -0.54668796176213   -5.49605132670212   -1.78309765893448
H          -0.90287270937796   -3.01465117532976   -0.01162935802257
H          -1.94998695664922   -4.43561622896101   -0.03110927700481
H          -1.89554078560412   -3.35643811405339   -1.43135227464292
H          -0.43553980457297   -3.11632798446581   -5.15304770238633
H          -2.00897635325804   -4.91456991288168   -3.23024963074983
H          -5.27269079962018   -5.94233724924887   -6.19044059853114
H          -4.36077085980129   -5.35496566799783   -8.46768463040266
H          -2.33698153460078   -4.52731444645728   -9.76217284649283
H          -0.33437533280697   -3.15925311418642   -7.89751869809097
H          -0.19337640904201   -3.77783574483302  -10.91021652520186
H           4.00169450689488    0.34621128200318   -8.27587160120274
