104
 SCF done       -238.047704290419          0.000815592818
C          -0.01371793977808    0.46283964795111    0.75892518169105
C          -0.74820616508331    1.30962330307763    1.53126235777288
S          -0.11819304415759    1.39679835586328    3.13426134508374
C           1.16392039468560    0.26956942964881    2.76319607579998
Cl          2.29761214971572   -0.19516290220185    3.93150338315315
C           1.08133583436551   -0.13483108789092    1.46275833324620
C           1.82321201087872   -1.03500487014475    0.57750550598269
O           2.80826196313594   -1.68381813704420    0.84044880943194
C           1.12708320557839   -0.91857264196359   -0.74960936243155
C          -0.02345761020036   -0.02631505759244   -0.60282930818625
C          -0.98235798711911    0.26509483542333   -1.53175892981779
C          -2.05620362330630    1.13121739565525   -1.22846365678865
N          -2.93236612891916    1.83317519263551   -0.99554859391340
C          -1.04323369742344   -0.24994995390691   -2.84345321508556
N          -1.15417848626427   -0.64445293593397   -3.91517424886053
C           1.59078501264942   -1.40696724197602   -1.92212436771545
C           2.68945990959116   -2.33294167926881   -2.10499300852319
C           3.55045655233221   -2.15355137330127   -3.18702941110469
C           4.62146928359225   -3.00839095713585   -3.37817994730917
N           5.55729755643540   -2.70408924425460   -4.43211209878651
O           5.19137568174721   -1.94794525153350   -5.30333056131229
O           6.66031024567059   -3.20474936123450   -4.36269358280439
C           4.84984594349826   -4.10563817963028   -2.53274824735133
C           3.95853487033328   -4.28885431448028   -1.47134495321947
C           2.90515904082596   -3.42747688382099   -1.25838933290666
C           5.90772871182545   -5.06316880027938   -2.78243631986126
C           6.72452308380186   -5.53374784020311   -1.81805388190485
C           7.71953990935928   -6.51365710231480   -2.09652661947933
N           8.67953029904813   -6.91700550920887   -1.20493186833905
C           8.84412724073631   -6.46424034060920    0.15562570503353
C           7.87658193931538   -7.16567367122150    1.10590055684143
C           9.52396619935202   -7.90843055638497   -1.75166653016201
O          10.45026623073455   -8.41408107582157   -1.15744931423440
C           9.01287598979887   -8.09650381855073   -3.09236390627319
C           7.91174534565235   -7.23310387279670   -3.27610285424879
C           7.40443627575454   -7.45614816430660   -4.61323349651316
O           6.49032092575337   -6.94840810313912   -5.22911053939664
N           8.23077959165896   -8.46730354247247   -5.14382123920672
C           8.08913015684121   -8.85908653661675   -6.52711672611824
C           7.06235345352953   -9.97556289852166   -6.70766257013396
C           9.18459811296328   -8.86843882361754   -4.23920110526229
C          10.16003010892189   -9.88995062017746   -4.32129220809760
C          10.20887271802398  -10.95130605768164   -5.16927919695109
C          11.19454643292934  -11.97462245609349   -5.09367862927314
C          12.03258137895586  -12.02940448015531   -3.87487851107079
C          13.42409991526908  -11.95818346885853   -3.93682541872005
C          14.20360743307604  -11.97968973285630   -2.78396064164306
C          13.59377542678478  -12.08906347562375   -1.53686545565644
C          12.20617013607761  -12.17864556061687   -1.45163985288062
C          11.44481515919215  -12.14365178030256   -2.61380907269120
F          10.11653345782964  -12.25658570362586   -2.51876648460194
F          11.61685175957890  -12.30657560436455   -0.26535022658639
F          14.33353136591233  -12.11707798403144   -0.43256449502700
F          15.53003405721438  -11.90101921034581   -2.87019052702642
F          14.02605789152857  -11.85447684777995   -5.12023005900945
C          11.36710126265802  -12.93122406801568   -6.07820597322174
C          10.60831211999480  -12.84328265884676   -7.34036373194287
C          10.55185373452245  -11.67151448921003   -8.10291013764136
C           9.84820096772176  -11.60509125994416   -9.30106226159277
C           9.17708698869382  -12.72643755712851   -9.78048302697636
C           9.20407803436524  -13.90124638657699   -9.03491478592440
C           9.90025396668373  -13.94336808094952   -7.83279330136129
F           9.85246181587288  -15.07974214561131   -7.12623951094286
F           8.55611075159088  -14.98421075675680   -9.46502184470856
F           8.50410542673131  -12.67105858290013  -10.92524739780030
F           9.80894539376873  -10.46251944788540   -9.98469530660640
F          11.18136484009669  -10.57189825891329   -7.69055188174031
C          12.17745494172481  -14.07908432727714   -5.82494086864921
C          12.62507516243384  -15.05706300797114   -6.65600529475422
C          12.98029078316316  -16.37967667966165   -6.03867670149262
O          13.23128808629074  -16.57977892942667   -4.87623371150526
C          12.87694207363009  -17.32861760376039   -7.15129089667108
C          12.93602983164519  -18.67960614954250   -7.32634680174191
S          12.68230878672228  -19.09114973746846   -9.00618684923979
C          12.51299644531094  -17.43361102954601   -9.45609061554249
C          12.63567090879350  -16.61918660574943   -8.37534332479795
C          12.64306097662588  -15.19689083567045   -8.09847255371197
C          12.84324091488278  -14.21024116514797   -9.02597917104968
C          12.81486790443920  -14.48099560535897  -10.40846948913388
N          12.74606588494249  -14.68890969982048  -11.53460291083856
C          13.20119341346310  -12.88990541315918   -8.68524910662714
N          13.57145217073031  -11.83171880107394   -8.44374751767958
Cl         13.20946240570221  -19.87304111243360   -6.15778257302653
H          -1.61085424190864    1.89090862967242    1.27229684745310
H           1.13556070993517   -1.05851743496774   -2.84157890618200
H           3.42253044815651   -1.32277802423140   -3.86600105582172
H           4.09013197299068   -5.14362720680734   -0.82628419706472
H           2.22175670906282   -3.61765433509649   -0.44752056178193
H           6.02032803584988   -5.42429345440954   -3.79834195060872
H           6.66796590503070   -5.13270534559783   -0.81587331973153
H           8.71733812311316   -5.37934735563633    0.19642283032954
H           9.87202087666602   -6.71042762703736    0.43581144840373
H           6.84322212648523   -6.97629130617280    0.82372685155316
H           8.03369428578600   -6.80816738301567    2.11953466992028
H           8.04969989039350   -8.23873545557986    1.08577922540353
H           9.07024054456439   -9.13557866672641   -6.91694610066821
H           7.73734554134177   -7.97361177289951   -7.06552299293977
H           7.30996158023124  -10.85185777589173   -6.11134014840011
H           7.01063444899193  -10.26130010569154   -7.75501678592884
H           6.08278319858152   -9.62008009928169   -6.39886606866613
H          10.90912381373820   -9.80002545572797   -3.54480716325948
H           9.45393913796107  -11.06786243097303   -5.92902676788435
H          12.38878465301952  -14.27592246125609   -4.77827420418666
H          12.32300056806718  -17.17950698813669  -10.48022077725982
