82
 SCF done       -168.220266114460          0.000948372508
C           9.50283829657350   -0.02035101113686    3.84584070750689
C          10.49891954786757    0.44101174709053    4.65033589176682
S          12.04197921392447   -0.11040983973128    4.11139938300932
C          11.33676186209778   -0.98258165881197    2.77176813312441
Cl         12.29403353411490   -1.85981841416038    1.68560440295814
C           9.98034410913292   -0.83719464625050    2.77106735650149
C           8.85908199897659   -1.30021254607926    1.95147758758743
O           8.90988932477770   -1.97585017399621    0.94951812795567
C           7.64699908756308   -0.68672389002269    2.58446097987480
C           8.06051073055377    0.07617805270695    3.75883345041590
C           7.26961816724148    0.73193450370673    4.66192478715714
C           7.83021498779192    1.41123047991730    5.76601048392791
N           8.27092374281179    1.97129714552363    6.66450340875371
C           5.86202887228419    0.81140122809241    4.63191968414767
N           4.71978776092182    0.91746043834629    4.66926554200072
C           6.38829527887539   -0.68814968400164    2.07026999329152
C           5.88586956402976   -1.45760480176390    0.98377885375180
S           4.52234310863472   -0.84029413119005    0.09587193948103
C           4.53546458649293   -2.20599177712300   -0.95572139057965
C           3.57262205294086   -2.36229314710263   -2.02653939469254
O           3.56552345774819   -3.28871458504988   -2.79919266756531
C           5.52600864929047   -3.11478307443596   -0.60015320023716
C           6.27326418351508   -2.69361738104328    0.50304076825771
C           5.72771869610107   -4.39034553673279   -1.27575530290390
N           6.36444750850618   -4.52565351470826   -2.47244275021624
C           6.97399695847293   -3.46514758310125   -3.23478774192816
C           8.32054198273539   -3.04993112735127   -2.64743848053130
C           6.41888306170427   -5.87763012527272   -2.87659172113144
O           6.95918460186108   -6.24582919156187   -3.90029519874990
C           5.74065392394806   -6.59187806402421   -1.82001051849983
C           5.34093090396822   -5.63450737648615   -0.83927755865469
C           4.64055733592435   -6.32869286949440    0.21713972669000
O           4.13279568684903   -5.94530496938769    1.24869147380155
N           4.65392763647134   -7.67415117881355   -0.19899449173622
C           4.07589036145511   -8.71128441324374    0.61981466495384
C           5.13884384821064   -9.47306115269389    1.40854515559838
C           5.30607834351653   -7.84196968292609   -1.40215201680549
C           5.46646241154604   -9.10263710001769   -2.03895316091440
C           6.14534911725363   -9.24313511577532   -3.20327500045998
C           6.35741617665815  -10.48262517028303   -3.86858686901575
S           7.24452366831504  -10.50567273524353   -5.35406517973963
C           7.06629064440733  -12.22204529313982   -5.50462046181910
C           7.73200533538126  -12.88002983461879   -6.59683587854854
O           7.68700251477817  -14.06241775882195   -6.86491947511090
C           6.34777446547646  -12.75023011482915   -4.42459287288434
C           5.98038269212689  -11.76127691131451   -3.50257485002413
C           6.05967421611355  -14.14818517782273   -4.20065914700144
C           5.66532705014724  -15.07990401480381   -5.08731672434766
C           5.78132389904553  -16.53466332032762   -4.73279674738460
O           5.90683686633750  -16.99404454969277   -3.62495419992650
C           5.76489436972683  -17.21571839340277   -6.03057746180479
C           5.95104336639732  -18.48280680463665   -6.49849110781216
S           5.80165754941653  -18.52049901211326   -8.23895326974870
C           5.48029733744672  -16.82772525216508   -8.31563548302048
C           5.49565562534451  -16.27006788021906   -7.07631743129476
C           5.28831283932808  -14.96314717491254   -6.49170293649431
C           4.66917672798531  -13.90930147578810   -7.10095866761133
C           4.31990335320055  -13.95276295708803   -8.46715923470167
N           4.03737789057288  -13.97513091027597   -9.57828744920056
C           4.27960957635504  -12.72959878855510   -6.43771279138851
N           3.90078667791907  -11.77507163256899   -5.92463500880327
Cl          6.28302403277031  -19.88652798429773   -5.61137140926844
H          10.43827211878960    1.06790259467760    5.51773081144516
H           5.66728099497376   -0.00364516511647    2.50126613092726
H           2.82823981391208   -1.54693341748559   -2.08203016181805
H           7.06039194504722   -3.28049908882615    0.93672165341954
H           6.28891947641267   -2.61404045544478   -3.27638061657672
H           7.11292340152140   -3.85814819459464   -4.24542376804198
H           8.21350477845848   -2.68445571031812   -1.62823796845619
H           8.75695233102772   -2.26225539033848   -3.25532131750419
H           8.99991920894376   -3.89881455186724   -2.64137502048465
H           3.49075203511266   -9.39069913036572   -0.00622188535174
H           3.39988199616321   -8.20424830411787    1.31413400282808
H           5.85945503195992   -9.94289460987256    0.74248286032342
H           4.66780325135975  -10.24174228877304    2.01489744591935
H           5.67127379387941   -8.79026204395359    2.06590339369506
H           5.02602735020349   -9.96443575526951   -1.56052684550748
H           6.56787891784762   -8.36746369504309   -3.67814985233234
H           8.32931306214178  -12.18288699723064   -7.21409976794954
H           5.42256425656410  -11.98341016092181   -2.61099637635046
H           6.21930068060208  -14.49903481704719   -3.18534356845897
H           5.31979418304919  -16.36131350341295   -9.26723639979460
