83
 SCF done       -174.241203481281          0.000927229682
C           0.70550355636986    0.38803792441032   -4.14180133823435
C          -0.45762867877373    1.08202603120929   -4.28044966602550
S          -1.76661242611924    0.26825168995344   -3.50681883459093
C          -0.73090673433303   -1.04071513925519   -2.98547569842438
Cl         -1.33573440726246   -2.34269344947318   -2.08815009512488
C           0.54977960295123   -0.82591307097846   -3.39911918115203
C           1.83693698898414   -1.51962303305106   -3.29133603486903
O           2.04696090323984   -2.60177753555221   -2.79698282655693
C           2.81017644014579   -0.63109098222150   -4.01113824505178
C           2.09018020893697    0.52196630953047   -4.54477377838780
C           2.57828498316741    1.57155605933261   -5.27428625491771
C           1.73443763839963    2.62238506629928   -5.69787999380688
N           1.06854147604609    3.48799015199577   -6.04880277888451
C           3.89970813053045    1.76550157017143   -5.71681711336320
N           4.93460810739668    2.02064234175887   -6.14451858376220
C           4.10996196935919   -0.92836660392199   -4.25436241926830
C           4.85966870596655   -2.03079750383315   -3.69890577431694
C           4.71313048093050   -2.46309481956237   -2.38282403107074
C           5.40358191441858   -3.57211804418927   -1.92302141686117
N           5.14225218906474   -3.97105739310787   -0.56342668101804
O           4.77884074865707   -3.10814438613824    0.20680714093732
O           5.29263044294349   -5.13767366773583   -0.26562013381769
C           6.28387336440109   -4.29544396183111   -2.75074216768322
C           6.48311251036340   -3.78885365094739   -4.04477165998050
C           5.79970517775049   -2.68973507315227   -4.50620916507947
C           7.02006142281559   -5.45705273778528   -2.30670354512519
C           7.39674594757758   -6.43595205492960   -3.14948938796617
C           8.14204905801670   -7.59774768196004   -2.78150761329502
S           8.28246226113925   -8.12316606936352   -1.13085991454994
C           9.13368082393608   -9.53772780917178   -1.58888813804130
C           9.32886382109400   -9.61597768289678   -2.93790381478370
C           8.77561044415346   -8.49673158774074   -3.62486568455544
N           8.88526010347408   -8.38225553822824   -5.00589972913812
C           9.07016810055308   -9.64911425445593   -5.67084076492652
C          10.26942334422437  -10.37140600799036   -5.04349185147402
N          10.02884882470059  -10.61823461979487   -3.63110037196639
C          10.40688496552210  -11.78459393599652   -2.99510465448509
O           9.99137458075266  -12.12065200884607   -1.92426227988814
O          11.29405891948073  -12.54615354174612   -3.66337815610276
C           8.94453127270386   -7.18125183806751   -5.61945907377538
C           8.83967264627195   -6.90307997403833   -6.94229571535634
C           8.85355713298219   -5.54600465519432   -7.35502146661566
S           8.74400781917320   -5.04247561495838   -9.03336377100467
C           8.78911929633408   -3.38764173708253   -8.40290739965887
N           8.87471150704532   -3.36206521616305   -7.10527160525511
N           8.90791595561703   -4.52799972006657   -6.53032157261647
C           8.72055460465307   -2.24143370688065   -9.23581014065624
C           8.76996094358561   -0.98890738534280   -8.71934973596302
C           8.70717834802111    0.18738467553586   -9.50292045648126
C           8.60588052157299    1.46191907796236   -9.03315176205913
C           8.95678177612306    2.61688380538955   -9.91548200279509
O           9.08824053240975    2.59321800287353  -11.11568443909985
C           9.15751413083778    3.73447690055267   -8.98289546498728
C           9.54830303481846    5.03800161151666   -9.04997308570606
S           9.54623542676948    5.76241637798447   -7.45837197566594
C           9.00558102411017    4.29732504572402   -6.72216046624953
C           8.84707212967477    3.31414333107188   -7.64644611936829
C           8.37642281592722    1.94313675761206   -7.68390986151548
C           7.68488505521596    1.32328594879908   -6.67835255829202
C           7.59164691126777    1.88112626920653   -5.38526071718292
N           7.56531516928680    2.28769510501593   -4.31294009750664
C           6.91239139536693    0.15976099697475   -6.84689631607158
N           6.20862157972919   -0.74291173253310   -6.94418137603571
Cl          9.99114518799120    5.92822162120719  -10.42157083787792
H          -0.64128519944680    2.01074730411511   -4.78298865689594
H           4.64993642668072   -0.33079370262473   -4.97999875187826
H           4.07019199199607   -1.94151745066255   -1.69160130157829
H           7.21855701188157   -4.25129037999486   -4.68552567740746
H           5.97330765866669   -2.33246272325123   -5.51074921986578
H           7.26277592188409   -5.54538073523907   -1.25700027996546
H           7.08454063607699   -6.39064189491930   -4.18448511253302
H           9.44132771255673  -10.23928209584087   -0.84248271831501
H           8.17173849578540  -10.26516083936330   -5.55223386023217
H           9.25989898103227   -9.48906845316638   -6.73089794210880
H          11.16670615033710   -9.75032342594093   -5.17854675206876
H          10.39900777591507  -11.32151265077623   -5.56826257590171
H          11.77218934422481  -12.08322207905055   -4.36128719906651
H           9.08430753604902   -6.34142281321585   -4.95395777368140
H           8.70323132356579   -7.65132349547469   -7.70603720064877
H           8.59478656949104   -2.40439125816765  -10.29678885557627
H           8.89425828884607   -0.89935424598596   -7.64984905353904
H           8.82600134678706    0.08601793793829  -10.57631799640088
H           8.84820990014580    4.26389575502603   -5.66231841766002
