80
 SCF done       -167.279648174652          0.000605500126
C           8.71975172985720    1.33451997976096    3.39321493075041
C           9.66143747653007    1.79921624440325    4.25959848069005
S          10.13089179125893    3.40992099772503    3.86280790183425
C           9.04749334028334    3.45807775546871    2.48968726987711
Cl          8.93236871353702    4.82995558535109    1.50620650975796
C           8.36507276589309    2.28454528467777    2.37981024528202
C           7.37179336306514    1.70128878372784    1.47099856658965
O           6.93369011222212    2.16026609806881    0.44650640630371
C           7.05674465514014    0.36483318186038    2.07680072912646
C           7.98485988948857    0.10965506626994    3.17079957629866
C           8.21792754284435   -1.07871030155559    3.80679708758817
C           9.17824112030463   -1.18743363159436    4.83523741108228
N           9.96031512475028   -1.30156635161864    5.66688333824428
C           7.62803500570775   -2.31271663949377    3.46942318524628
N           7.21879357312875   -3.35603577781476    3.21726177775248
C           6.09915371919735   -0.47260419061330    1.62584580915764
C           5.24372666730961   -0.18395745060723    0.50500689341130
C           5.07548057527349   -1.10347445242497   -0.53002807198417
N           4.25408840318895   -0.91517665964271   -1.59504720745088
C           3.58542681026245    0.17941639522236   -1.75256610482416
C           3.64970248170928    1.20288180101941   -0.77628433178371
C           4.47898996548703    1.00095881188127    0.38468433053783
N           4.28429929747009    2.03261005922417    1.18646284442395
O           3.41995054738730    2.82146553822434    0.56032671492241
N           3.02283840113014    2.35189885319752   -0.61320841121727
C           5.83628013516624   -2.33919803636245   -0.51354629454252
N           5.30982756975732   -3.53887752149867   -0.89830030643377
C           3.94287669122360   -3.80441026890623   -1.28089317676453
C           3.00644952445192   -3.75472494439894   -0.07724102012335
C           6.23113705794205   -4.59142840650335   -0.73057888835220
O           5.96922176653141   -5.75189573647787   -0.97447820038124
C           7.42645817381522   -3.94237517215647   -0.24995133034543
C           7.15471772256191   -2.55022719540880   -0.12168695729642
C           8.40058083200669   -1.90523547271252    0.25543495850205
O           8.70278663381021   -0.74259785175808    0.44632258857474
N           9.32396717024039   -2.95717578093581    0.36932344587614
C          10.69982894791171   -2.70769398410645    0.73072527376070
C          11.03195890770174   -3.18134492695283    2.14299026543996
C           8.76248825117884   -4.17043486974645    0.05899503606245
C           9.48204948549513   -5.39551711171956    0.03951986213062
C           8.88683277397635   -6.58504085555357   -0.21709608353469
C           9.61117489523473   -7.80698610823667   -0.26277030880270
S           8.78673457760350   -9.32562249123507   -0.65877134530391
C          10.28046228204608  -10.12028661357516   -0.52171483950171
C          11.29740703343374   -9.23192980484305   -0.21188456444891
N          10.87916504915535   -7.95223233565064   -0.06698591344333
C          12.66222630852450   -9.60978982331836   -0.00164101349298
C          13.72647028188939   -8.78557874017290    0.14151443793655
C          14.98231549126864   -9.29518444825389    0.78121600211145
O          15.29856482209648  -10.44920097374530    0.93194717237143
C          15.67570816852766   -8.07711536081158    1.22280630609712
C          16.79594766178251   -7.76526213162844    1.93394854090883
S          16.97720319968316   -6.03119365489361    2.06428948687673
C          15.54400079970404   -5.74729280933359    1.14461679715091
C          14.96105951247778   -6.91715855249553    0.77148791165904
C          13.83294699012151   -7.34568978656419   -0.02995326069089
C          13.15684905557680   -6.56462212589794   -0.92437430684791
C          13.28944055636611   -5.16476934309713   -0.93360959535627
N          13.32535181030525   -4.01703796742088   -0.90353461696734
C          12.32124361714322   -7.07243824985006   -1.94236592738873
N          11.72403884733306   -7.43863693428506   -2.85117273834245
Cl         17.91978448129634   -8.82241537556314    2.63201379888510
H          10.10824131918766    1.31250722430018    5.10397771198602
H           6.00110418740926   -1.46163506374355    2.05517084271648
H           2.96583940546975    0.27164711771692   -2.63210727040495
H           3.94394564986598   -4.81025954928437   -1.70897299652776
H           3.63719492762917   -3.08007799042412   -2.03740238212089
H           3.33001105237701   -4.46313391709984    0.68188093019838
H           1.99764880750979   -4.01202687313769   -0.38666637305429
H           2.99132217384770   -2.75797282554155    0.35907126304678
H          10.83355190655829   -1.62422967559970    0.66389504153716
H          11.36546601767566   -3.18266124170446    0.00359053275042
H          10.44084172066652   -2.64422627046937    2.88030497240723
H          12.08306517514416   -2.99664309669144    2.34582736139834
H          10.83437433119064   -4.24404084663657    2.25989023040357
H          10.54449955069929   -5.36964423658740    0.23149002113334
H           7.82546615226051   -6.63893141776180   -0.41613806364885
H          10.36903844989810  -11.17647394903913   -0.68013317679640
H          12.84668057305120  -10.66719585553336    0.14586616519358
H          15.22965844198716   -4.74061474785941    0.95230811131619
