66
 SCF done       -143.597725537868          0.000700511093
C           9.54279665093498   -6.05760699748105    2.57665628820669
C          10.38260315027305   -6.78058476143506    3.36674913919041
S          11.05438442930792   -8.11744790163716    2.50518856315864
C          10.19385416537715   -7.70207271974388    1.04405151190449
Cl         10.32001734248326   -8.63501260814082   -0.36667243995864
C           9.43780197167616   -6.58186814526278    1.24830089758189
C           8.53200557335470   -5.76161837999662    0.45728491913610
O           8.27261276988284   -5.89638492928786   -0.72335951270195
C           8.04291942873253   -4.69968031487154    1.38920413751519
C           8.69193688945689   -4.89114894097264    2.68966695674956
C           8.53434691095445   -4.15845306888727    3.83282593088453
C           9.23506951400748   -4.48999199391895    5.01419041110386
N           9.79591628994936   -4.74366146848449    5.98156549424126
C           7.70089619741585   -3.03348268195425    4.00174221250430
N           7.04325997065418   -2.11706266260930    4.21475731282499
C           7.21787070614396   -3.66708382783543    1.08455168173935
C           6.53208781026417   -3.41232894523481   -0.15927960414382
C           6.01025742283521   -4.40905465615159   -0.97991492823601
C           5.44173629208933   -4.06980642359564   -2.20904052176489
C           5.30483030378930   -2.70436367598864   -2.49573808986431
N           5.74827767213262   -1.75439304929260   -1.69971658435607
C           6.36325368710767   -2.08196614556493   -0.58469527458152
C           5.04176478056695   -5.09614758409102   -3.13451320637486
S           3.79804665288012   -4.87386713795012   -4.33209402643276
C           3.99569624530268   -6.47283208824727   -5.00254398266696
C           5.01091585724812   -7.14412094402034   -4.32766917857894
C           5.58779838584237   -6.35675606275666   -3.28087242215134
N           6.58887996457086   -7.07196202287576   -2.70731659960652
C           6.67300597322912   -8.28128830545883   -3.36393882941905
C           7.63121494207580   -9.23503589181283   -2.99285406198003
N           8.41588017636441  -10.01041348874450   -2.67618218060747
C           5.71337738909431   -8.37096953828193   -4.35254123902414
C           3.21068534036838   -6.89998885501305   -6.09581965310104
S           3.41093895330758   -8.46947569263401   -6.80056088670944
C           2.21940402501489   -8.13210344112968   -8.02044397023833
C           1.88363441740575   -9.17490137844099   -8.94692307411745
O           1.12557028534293   -9.08498877255045   -9.89144798357808
C           1.68339998408228   -6.85104340506781   -7.85507128069219
C           2.22680864649165   -6.18418853477634   -6.75130796024947
C           0.64826346189530   -6.26096770311271   -8.67394365095759
C           0.54297013033709   -6.27013129057686  -10.01412453792754
C          -0.76648559201056   -5.91564163822475  -10.65881325431446
O          -1.68380765999447   -5.32955607743081  -10.14057608116659
C          -0.66658425162359   -6.49434892050929  -12.00163814981569
C          -1.48548893055266   -6.67509491855926  -13.07674054607468
S          -0.63738088555215   -7.50525783183672  -14.35912932986188
C           0.81579479178796   -7.59087734315370  -13.43442240507638
C           0.65210330469609   -7.02099198373525  -12.21113061241802
C           1.45859471968228   -6.76303816651577  -11.03812645032938
C           2.82321838557029   -6.79227245541182  -10.99522135614743
C           3.58288322474104   -7.25815802645996  -12.08965949115220
N           4.21475770367827   -7.64188114361412  -12.96643323104304
C           3.60456167857407   -6.32785627012655   -9.91938816612775
N           4.29106699110990   -5.91889066232017   -9.09460397916102
Cl         -3.10215980060276   -6.20226559021127  -13.25033430874115
H          10.65597591129788   -6.62484006174847    4.39150666434760
H           7.08251041726062   -2.89492061866934    1.83202325403123
H           5.99014141948522   -5.43300625741671   -0.64549121995822
H           4.81323188627757   -2.37922240326670   -3.40307305475121
H           6.75102140592755   -1.26053647967829    0.00193786632822
H           7.25783472699438   -6.73226976165527   -2.02780904799343
H           5.55231472573108   -9.20398736623862   -5.00593458174550
H           2.40839658166113  -10.12533989430081   -8.73165490113454
H           1.94746647400752   -5.18599707148350   -6.46347295053868
H          -0.15858364031768   -5.77578114118342   -8.13333246421814
H           1.68058565186260   -8.06836148046632  -13.85046197971448
