96
 SCF done       -201.766383645896          0.000574479118
C           7.14067949936206    2.74822229489616   -8.78871592567871
C           6.79044221732468    3.89906462118956   -9.42524076515834
S           5.09201226536503    4.18103910595226   -9.31406745322671
C           4.84183287075775    2.71616586516470   -8.39283471455772
Cl          3.30351176079118    2.25904574671111   -7.85592718177687
C           6.02676554932086    2.07121869571828   -8.19699011888497
C           6.47587531207202    0.84424905805410   -7.53274301879262
O           5.79002519689183    0.00384542439127   -7.00157002204507
C           7.96127762645605    0.82252912398248   -7.74117621170165
C           8.34633115307104    1.99083929451577   -8.52260455727108
C           9.60176599768671    2.37141563535912   -8.91865486991035
C           9.80638225584090    3.55186181131053   -9.66528547805584
N           9.99269077266815    4.50408971310296  -10.27709682352324
C          10.80461697380168    1.68673481733228   -8.65475634110757
N          11.82182386650912    1.18539932254607   -8.47404092143798
C           8.80867452416864   -0.18537097176435   -7.38842943303062
C           8.56777406723836   -1.29798814488691   -6.53969755414372
C           7.64506880969342   -1.47270065528134   -5.53347806001900
C           7.83126944900492   -2.76196198620619   -4.94686210593301
C           8.96333206453875   -3.38050204874772   -5.65917813926609
C           9.40750069115161   -2.49300341088211   -6.58495658205035
C           9.50718116293873   -4.64960978007920   -5.42629138959647
N           9.97370655366607   -5.68548340964313   -5.25930403436722
C           7.08093398170804   -3.32653855268589   -3.94230768512966
C           7.17379974230086   -4.65022382637065   -3.42840489269331
C           6.18599296340554   -4.82866074808012   -2.48148293506224
C           5.44379350288980   -3.58277297030666   -2.35241317117851
C           5.97048943645693   -2.67625274861956   -3.21267274605745
C           5.54831180572320   -1.34392686468394   -3.32010268608894
N           5.18486955575244   -0.25526681675661   -3.34485456890084
C           5.91958610284531   -6.00562144598444   -1.75740611570549
S           4.53120417024362   -6.09737011286403   -0.63187614946940
C           4.99066401147680   -7.71074252833510   -0.31009828900616
C           6.14253653603650   -8.05418383058659   -1.05771687493440
N           6.62173877308655   -7.10941248148047   -1.83753483360045
C           6.55906997456158   -9.46002685682315   -0.77676261970855
C           5.51025113880106   -9.88200698940828    0.20816627319441
C           4.60464960292510   -8.82147073102306    0.45211798745042
S           3.37588380582747   -9.24396985987140    1.56154251150461
C           4.06197799897189  -10.85452755831638    1.71863336635443
C           5.20510993733412  -11.01703988559360    0.92092045310610
C           3.42994240320729  -11.76823818444186    2.56812129183158
C           3.93162552753432  -13.00836770966717    2.89073901986547
C           3.29280302951381  -13.91216804996087    3.74624720042138
C           3.89108075344983  -14.91467454490432    4.51877037117071
N           5.21957297795681  -15.36063141874922    4.47078143400356
O           5.96128693120779  -14.90019272430734    3.61392671608488
O           5.55965760053919  -16.19939941682888    5.28730867315236
C           2.93907449494199  -15.40170592879146    5.46347792641329
C           1.75861505140155  -14.72977816755940    5.30158042584072
C           1.88200271719587  -13.84917478107643    4.19004413890936
C           0.84880899875331  -13.25909306393502    3.48421703371453
C           0.81486333349063  -13.12787650997264    2.05406932299484
C          -0.45433027453694  -12.82474186613759    1.66991932072758
C          -1.26285451350107  -12.67074733234627    2.84041118134834
N          -2.61734696658807  -12.28755500907235    2.76924051669203
O          -3.25862158982027  -12.19430894511589    3.80226197729614
O          -3.07529533739304  -12.07916679197194    1.66013785087996
C          -0.48720414748915  -12.90898966381030    3.97822226658500
C          -0.84845824359198  -12.60558012789658    5.31019761387666
C           0.04305018088619  -12.34302260227511    6.30976255922082
C          -0.35916668499326  -11.90826332223353    7.58556748540926
C           0.44277980077829  -11.43116557794163    8.58465589653604
C          -0.13014242066568  -11.31680983098142    9.96356967231831
O          -1.29489918524922  -11.41888865245066   10.26272819211008
C           1.03420819654859  -11.10542088806264   10.82960090364586
C           1.28307277564229  -10.99263277165513   12.16432113908831
S           2.99320053102132  -10.76207052857729   12.44896186034395
C           3.34603043184439  -10.81250310719941   10.76083293934288
C           2.21671208413750  -10.99986148015609   10.02589840088173
C           1.84978180881488  -11.08958560631985    8.62208815165097
C           2.69729355508149  -10.73685158682948    7.60017187455403
C           4.04362892677330  -10.39302541082696    7.85376404149799
N           5.14645939356284  -10.12332935612753    8.01888952558766
C           2.39184078840237  -10.57015147310726    6.23789862573408
N           2.25127839628911  -10.36740837512582    5.11503794734601
Cl          0.17538140354471  -11.04987620355125   13.44338321591039
H           7.40557894310321    4.60016630052556   -9.95350225047985
H           9.80706792306115   -0.16481841812609   -7.81105186628099
H           6.90046737253278   -0.77012570046947   -5.22089506262371
H          10.22838379608971   -2.63254158110981   -7.26435395882283
H           7.87659329962697   -5.39674491843466   -3.73950333166745
H           4.62522913208554   -3.42565222302516   -1.67407253470781
H           7.56636795666988   -9.50524740831529   -0.35838133685036
H           6.55366147957256  -10.07176723515979   -1.68082849796318
H           5.76207330189906  -11.93529640256073    0.88661465837311
H           2.52131388428283  -11.42674759402041    3.04468805502345
H           4.92473828584344  -13.28523295062357    2.56323875137474
H           3.15123145365001  -16.18027161639924    6.17231830379247
H           0.84332970033144  -14.92363052314366    5.82691702859287
H           1.63566341190845  -13.36641072368347    1.40606182853200
H          -0.82870850504391  -12.71331599164058    0.67022119288690
H          -1.90363771752376  -12.44851291501429    5.49604628689667
H           1.09978952408182  -12.43507606096293    6.11525423092942
H          -1.41093524266403  -11.99226430435126    7.83966986628158
H           4.36230559101038  -10.70979803876408   10.43603660134377
