89
 SCF done       -179.831370820755          0.000926896961
C           6.28574613863206    3.55542284737954   -0.75922192876217
C           6.53094875829067    4.89002347614187   -0.65380456657173
S           8.11751226805988    5.27800123742211   -1.20834383143759
C           8.46304486635066    3.60842369504989   -1.59262742596185
Cl          9.95553880094183    3.14217693624891   -2.24258678786331
C           7.39038971597756    2.81980081511679   -1.29763459055432
C           7.05689265799508    1.39475474445509   -1.38494544054404
O           7.76275617300388    0.49486230991851   -1.77443686235005
C           5.67164030483183    1.29682456292068   -0.81500232518993
C           5.19993970398879    2.63969462016424   -0.48255238019295
C           3.95683406738205    3.00890942035350   -0.04879671975420
C           3.64432495932299    4.36045368073272    0.21495675478324
N           3.38018401723615    5.45363345942638    0.43952385923006
C           2.86562708454319    2.14057932631841    0.16011531536515
N           1.93658758678037    1.48927919133489    0.33344237658825
C           5.03928592555282    0.14802333564480   -0.47649356179422
C           5.42910042086304   -1.20129645417490   -0.81261596340779
C           5.20029647151272   -2.21412865320874    0.12137679982844
C           5.57081781804563   -3.51972766692927   -0.14177520120219
N           5.20049583853810   -4.49604862286752    0.85456828283094
O           5.32985882226918   -4.17375349996253    2.01598050533021
O           4.74863855016661   -5.55562112748082    0.47625348536902
C           6.18738990430258   -3.87753691926887   -1.35587643176513
C           6.32007172487408   -2.86448818123264   -2.31649635905915
C           5.96070819163392   -1.56224023294636   -2.05805454511440
C           6.71402438579576   -5.18393350363602   -1.66145732879018
C           7.23307832901700   -6.05451771229669   -0.76921006827561
C           7.72830987884679   -7.33055426659334   -1.15739138365852
N           8.11465041725677   -8.29527879966934   -0.26065443880758
C           7.97445372388558   -8.23549332919704    1.17522004024985
C           6.51924824453276   -8.39858525743648    1.60732967414614
C           8.54987147325238   -9.46659199722613   -0.90426313124809
O           8.93850528058486  -10.45437136431498   -0.31282666292526
C           8.42985463474303   -9.16607387592246   -2.31455795817713
C           7.92064588871721   -7.84748234351570   -2.43524328600923
C           7.81234048571690   -7.53996573503936   -3.84323956576283
O           7.42991042079848   -6.54816255609870   -4.43429097135925
N           8.25896282508715   -8.70427940347062   -4.48850482605021
C           8.33446934677417   -8.77730403696926   -5.92732621291645
C           9.76031293363788   -8.56790662319604   -6.43202296361682
C           8.62762380925244   -9.68319347563345   -3.59254943854265
C           9.08771936151182  -10.96875972305216   -3.97640610310315
C           9.41706497992609  -11.92128992579946   -3.06790675749601
C           9.85852924893386  -13.23175581314667   -3.39615927070390
S          10.13825412579715  -14.37273908198468   -2.12479744697599
C          10.55521141636607  -15.61819476991784   -3.25286873748505
C          10.98704013655533  -16.88895501718619   -2.73369131043601
O          11.27541373627320  -17.87353166268245   -3.38064087746777
C          10.49484594477243  -15.14634227552357   -4.57026022765640
C          10.12665582020747  -13.79626937405936   -4.62990717440940
C          10.83216269918027  -15.90165568898499   -5.75536306656102
C          10.51402314740317  -17.17178747300336   -6.06305259949894
C          11.26416274473884  -17.87766895818183   -7.15679931224976
O          11.93186681850468  -17.35854131841542   -8.01620763903873
C          11.03220525201220  -19.29849870897890   -6.88314948555208
C          11.48101357628858  -20.49568862586998   -7.35733695560088
S          10.74781679200257  -21.81566115412252   -6.47847546242281
C           9.83492458520070  -20.73851936844088   -5.48800568121775
C          10.08852659342968  -19.44286645148574   -5.81118876838456
C           9.64804983388515  -18.13173649497109   -5.38713398782648
C           8.51844415199570  -17.86945606364885   -4.66577758573503
C           7.74300145360203  -18.90902277797419   -4.10976836585078
N           7.10888813126899  -19.74481930423263   -3.64658423452260
C           7.99305436858267  -16.58007933819879   -4.45465460736420
N           7.50692596576663  -15.55040195497977   -4.30834427562187
Cl         12.58658982471407  -20.77591725232920   -8.60911704469279
H           5.89609353875848    5.67152240358871   -0.28598794239817
H           4.16149569708937    0.21958950471991    0.15519090685603
H           4.73550666108758   -1.98714411216223    1.07036612304109
H           6.74506806613904   -3.12401944747145   -3.27384259534676
H           6.06827892985846   -0.81769951898943   -2.82902326434128
H           6.73934692245578   -5.44111126123830   -2.71266150613839
H           7.30101997726103   -5.80664358929077    0.28039566870137
H           8.38930591362771   -7.29381822612827    1.54632572060015
H           8.57380174772734   -9.06055789353361    1.57020436288820
H           5.88714728635727   -7.62662107201408    1.17312912964767
H           6.45000074881392   -8.33834454112300    2.68978841156661
H           6.14367658097722   -9.36765601268343    1.28813115261158
H           7.69196779070936   -7.97654759761748   -6.30415445470820
H           7.93532923236394   -9.73672419378546   -6.26773930899506
H          10.12138073853182   -7.58902173674668   -6.12647292562997
H           9.77854930943515   -8.62116798191451   -7.51701716738748
H          10.43258530334471   -9.32365857839411   -6.03153997631518
H           9.15250903775922  -11.18282943520176   -5.03266501092914
H           9.33287538837855  -11.69663346719553   -2.01261717241810
H          11.04001957746100  -16.90239488929301   -1.62887730772645
H          10.02952173422083  -13.26511985781451   -5.55937618887385
H          11.45764889891957  -15.38277156446238   -6.47577978077503
H           9.19105736090982  -21.13464637495652   -4.72807383229603
