70
 SCF done       -155.053885587665          0.000946658005
C           4.89096079651446    2.34298338460524    4.39786209521557
C           4.91429169901684    3.36870317123058    5.29174847242618
S           4.26451997302202    4.81142908396131    4.60395387672836
C           3.94909716016356    4.02155708781311    3.07716317563805
Cl          3.25573800324508    4.85366039055521    1.77656733778696
C           4.33856508433383    2.71553109562694    3.12924003846673
C           4.34829435900515    1.56248381394980    2.23007003105438
O           3.96043933503994    1.51120289501640    1.08054458065175
C           4.93252802316735    0.45462349456579    3.02325705255480
C           5.27367212577350    0.94561701430125    4.35410726637415
C           5.84815264392748    0.26606500102262    5.39388206048582
C           6.10992784643058    0.90216389607499    6.62729886155130
N           6.32540505011482    1.40307029989671    7.63617872170479
C           6.24500771172060   -1.08622928275235    5.38767718874189
N           6.59089800657242   -2.17935428924554    5.45052793468680
C           5.11458877326225   -0.82418623324022    2.58774907760482
C           4.82660938180293   -1.41805969267743    1.33683845823177
S           4.13021489956605   -0.65900786867593   -0.06337209463231
C           4.19258671666533   -2.13534312348583   -0.94356291628045
C           3.56784392467737   -2.19598068761244   -2.25439800716437
O           3.26541191865528   -3.20413286697901   -2.84283946594083
C           4.75314362190800   -3.17642813629785   -0.19811169122570
C           5.09220203235273   -2.76083483897164    1.08948787608296
C           4.99596923099814   -4.50270465192909   -0.71038074150462
S           4.71621112030055   -5.91841743507686    0.25627644770440
C           5.20908149301593   -7.00741980396923   -1.02290223013551
C           5.58075993907888   -6.27193522035577   -2.13556935355224
C           5.46452552260907   -4.86983793967482   -1.94536329952155
C           5.96573296817423   -4.13581035838602   -3.11251382899258
O           6.15992184908982   -2.95096920504853   -3.21610159325258
C           6.25428910403752   -5.19520515931118   -4.16100530497484
C           6.09547414275360   -6.54638134289825   -3.48078316107282
O           6.35880679683704   -7.61261133756965   -3.98273725727132
C           5.15582396156703   -8.40419337548589   -0.75867796566950
C           5.43345205413186   -9.36840612438399   -1.66442523797850
C           5.35907706865543  -10.76535774996344   -1.39132690632913
S           5.50580898268856  -11.89249581976183   -2.69506858920479
C           5.26469038894399  -13.24055598411893   -1.63506762546953
C           5.34181844137315  -14.56629038844990   -2.19054620770090
O           5.14502008975096  -15.60778993946067   -1.60174006253025
C           5.10624872472151  -12.81721179130697   -0.31089898843705
C           5.18576598796122  -11.42277621160536   -0.18953958230575
C           4.95132009660250  -13.67968728025128    0.83878193599106
C           4.17516500709145  -14.76953486884990    0.97419868980681
C           4.43164725499568  -15.72492673759556    2.10510011341950
O           5.07292728742557  -15.49873398657349    3.10066625662300
C           3.77882484916500  -16.96448801691523    1.67520042279861
C           3.69427726795738  -18.25406226651970    2.11019296673291
S           2.72142926295351  -19.20651073997538    1.01505155077277
C           2.42897066824660  -17.85165127946203   -0.01113010670339
C           3.05189381730319  -16.73838806951548    0.45837972517081
C           3.17237821892216  -15.34592149517513    0.08512984909292
C           2.35344474274285  -14.68601870162798   -0.78593518607212
C           1.38537247230598  -15.37322381384898   -1.54886939848228
N           0.59519460643022  -15.91723205288461   -2.17718180965554
C           2.34313536766349  -13.28951457323424   -0.96704220499820
N           2.26684689641204  -12.15419456135608   -1.11978839390405
Cl          4.39166974348702  -18.93850909071282    3.49307416070039
H           5.26658456365649    3.38204444369659    6.30409582896153
H           5.54754532867410   -1.52425273107997    3.29286766857360
H           3.33659473023198   -1.19596625892461   -2.66427522208972
H           5.53453592502484   -3.41077986885434    1.82495933297503
H           7.24150366516495   -5.07671652064715   -4.61091454031743
H           5.52531143740549   -5.10720835425261   -4.97117470508886
H           4.84649206529675   -8.67110514313945    0.24267725861997
H           5.71371149485226   -9.09186565247760   -2.67155472533387
H           5.60756786952008  -14.56428496276976   -3.26447928994920
H           5.09031432608933  -10.91774501903100    0.75440309984434
H           5.57442245136487  -13.43219946970886    1.69319281084635
H           1.83464162312659  -17.97503662958258   -0.89458453885010
