78
 SCF done       -166.096693525303          0.000813076611
C           8.34203628606877   -2.70807385049374   -6.71402689626426
C           8.38754576400065   -2.51457356382918   -8.05934170839066
S          10.00294090037954   -2.64814200839887   -8.65323310045711
C          10.63379474348550   -2.97929762150557   -7.05730610379706
Cl         12.28354350102852   -3.25337379487294   -6.79674045369871
C           9.62679445510396   -2.97378760866034   -6.13761786496577
C           9.49541135422512   -3.18154076347580   -4.69242529742956
O          10.36315439243228   -3.47851921234814   -3.90509516819552
C           8.05239323629417   -2.92725672966573   -4.40566479156733
C           7.34285689308347   -2.75017497557816   -5.66564159868244
C           5.98967734839838   -2.71918561485985   -5.86576161699620
C           5.44886872524347   -2.53730753763482   -7.15682848883090
N           5.00091370862624   -2.38268960854927   -8.20135558641768
C           5.00796187391470   -2.93774336278951   -4.87566782114513
N           4.16024923876726   -3.16477436325336   -4.13684500134456
C           7.49618478661764   -2.71341393735643   -3.17962275364956
C           8.05754148878421   -2.85853554018456   -1.88970824629391
S           9.52219214726790   -3.69927275089979   -1.46948888888874
C           9.24547802639726   -3.48323062076068    0.32706148999869
O           9.94315005955455   -4.02047536470623    1.13898204211685
C           8.06703753761635   -2.65329772116385    0.47479204611794
C           7.41180363687379   -2.38349122122412   -0.74768686997003
C           6.17872580340874   -1.65336195469798   -0.62720623540052
O           5.42208679106529   -1.21632802358634   -1.44498837525426
S           5.88300586511183   -1.43775433470166    1.17580826877865
C           7.40588651416481   -2.18660331910233    1.60186067818426
C           7.93305865196637   -2.18599225564270    2.91845399790670
N           7.23079420217883   -2.26395824439694    4.09273619185189
C           5.82048389736247   -2.53267848910986    4.24490289420241
C           5.46299538201641   -3.95048868199995    3.81186431525782
C           8.08747040535027   -2.21076653555949    5.21604614034854
O           7.70136775838982   -2.29564524275497    6.36001754322251
C           9.40461541077791   -2.03012194745872    4.64356655822571
C           9.28026985520601   -2.02899152835884    3.24082076368890
C          10.58532221066375   -1.73338001951597    2.68259616507095
O          10.96043231392910   -1.53196802294723    1.55184563940082
N          11.43678433002006   -1.64919549775736    3.80981199627754
C          12.85251635010371   -1.46346425336192    3.60131253583440
C          13.59776740551476   -2.79635161141468    3.62436324298519
C          10.74557319324341   -1.81920390587270    4.98270773033707
C          11.19005039976719   -1.76135026958951    6.32769038661556
C          12.45573227371684   -1.68334163297962    6.81753211181192
C          12.71124339022583   -1.59660332282752    8.17424436723157
C          12.96719881535665   -1.49138906680172    9.36397578388513
C          13.24932906639001   -1.35955050999385   10.66325727587526
C          13.48276509639116   -1.19378827612275   11.85223229788201
C          13.80438839645448   -1.08780540557840   13.18604386054185
C          13.03400934983118   -0.61082872147696   14.20213196521880
C          13.48132891161702   -0.85578957499149   15.60947842024622
O          14.56883265182746   -1.25450369659722   15.95181861487522
C          12.30286728900701   -0.54832217559431   16.42508852082011
C          11.95500914258709   -0.59944409275933   17.74191172827428
S          10.30310731851506   -0.07053737071522   17.95908643790149
C          10.10656650280126    0.22164964417740   16.26936491677952
C          11.24223001165096   -0.07538518239277   15.58292343106370
C          11.71483842583301   -0.00779976726331   14.21103313170225
C          11.05683074594537    0.63013069232149   13.19343603024407
C           9.75330791402505    1.14078201230309   13.37729016890862
N           8.68871865856016    1.54530721605129   13.51290654980248
C          11.59997921989233    0.95497257906339   11.93602916374109
N          12.00110399244344    1.32015878145914   10.92462032225484
Cl         12.90526644242446   -1.08651198066097   19.05658713508514
H           7.59092633210490   -2.29812549367530   -8.74316671522110
H           6.47492338556894   -2.34450709087778   -3.15761065580986
H           5.24366369929818   -1.79959797803986    3.67480158893355
H           5.60989167079816   -2.40178595347763    5.31002839074397
H           5.68340867514369   -4.10164763631311    2.75757774766684
H           4.40308414891121   -4.12432521079789    3.97203963596947
H           6.02799525811732   -4.67534470922316    4.39314740608444
H          13.24546319697590   -0.75770605483705    4.33692994681954
H          12.95093660355242   -1.01755599902779    2.60680152817598
H          13.46008748562981   -3.31466995917722    4.57111497680139
H          14.65945812070457   -2.63026023763110    3.46335694284298
H          13.22065062855579   -3.43478243536087    2.82919811558742
H          10.37350554355268   -1.79882149864093    7.03916623811193
H          13.33003560159962   -1.69234136447233    6.18255305361454
H          14.77109860525938   -1.49067036766934   13.48095865126986
H           9.16600058455556    0.58426375084923   15.90486315548300
