66
 SCF done       -139.725741726249          0.000794278359
C           7.10442942346441   -7.29767457691106    3.21361974985423
C           7.86909500518728   -8.12913544031406    3.97268302533960
S           9.04360180800263   -8.95009898307255    3.00969265721888
C           8.50493622341285   -8.15931621118248    1.54891081629387
Cl          9.20884869549667   -8.48637409795357    0.04044157440799
C           7.47024013975736   -7.31218486022975    1.82946188363466
C           6.62083154210312   -6.39732739754534    1.07898142185179
O           6.72094268295649   -6.11539298244182   -0.09966763183921
C           5.65393966281500   -5.84628707881963    2.07670430976018
C           5.99437815138075   -6.38536433688261    3.39648056432103
C           5.40000098029353   -6.12738741697494    4.60037341553033
C           5.85501232332706   -6.74606280227399    5.78639044942617
N           6.21046426337505   -7.23763188482394    6.75969310810172
C           4.31654824681277   -5.25629469224291    4.83593090855583
N           3.43958680794694   -4.56633033875655    5.10569174117501
C           4.66859111719522   -4.94208049441045    1.84692158920742
C           4.25075905398532   -4.37196438322299    0.58990632678932
C           4.25471239692732   -5.05866854252667   -0.62181708163787
C           3.91588716718399   -4.39155185931012   -1.80032121068291
C           3.44476776799235   -3.07702233505143   -1.67645652861809
N           3.39134193117237   -2.43594699479084   -0.52769599000380
C           3.80243926105987   -3.03820060444746    0.56624075147814
C           4.06971294694152   -5.03816288058798   -3.07619281339714
S           3.13702020667814   -4.61081332286662   -4.48311003013172
C           3.96702439870308   -5.73181855996847   -5.52357386277772
C           4.94020051472733   -6.41067662269876   -4.80404086197961
C           4.98095073415313   -6.01313198622036   -3.42602404385617
N           5.96577766554672   -6.70930040210624   -2.80241980049700
C           6.55072605082031   -7.54014079764669   -3.73573097367033
C           7.61064188979920   -8.38694822184495   -3.38421901447905
N           8.47951199620774   -9.07697749897899   -3.08979289694199
C           5.94320184300117   -7.40080123208196   -4.96494495952596
C           3.60923433507642   -5.83511220667357   -6.91172375653143
C           4.50034776674304   -6.32945665819030   -7.86539921221854
C           4.09948733999055   -6.43520240063215   -9.19334684911218
C           2.82023488662704   -5.96326560305028   -9.52274724871855
N           1.98086059735504   -5.48329252367215   -8.63182105178101
C           2.34257580212048   -5.44113068636622   -7.36840512950034
C           4.99179100176942   -6.92430131316232  -10.22114854721766
C           4.67257280343102   -7.71482701801796  -11.26620104090171
C           5.60252923578471   -7.80883616134195  -12.44022060267550
O           6.74838516803251   -7.43444552668727  -12.47644322625703
C           4.78017928071677   -8.39354459900422  -13.50467422252681
C           4.91546755202794   -8.67845594941077  -14.83116402097580
S           3.44615923735825   -9.38824145904501  -15.45767673948545
C           2.67050721635961   -9.30208273436480  -13.91907787827292
C           3.49195665888661   -8.75271054131625  -12.98454360507275
C           3.45420501446259   -8.45844092134648  -11.56571628328608
C           2.54521268697574   -8.97000575000873  -10.68239487833351
C           1.43625420171949   -9.72137763510324  -11.12690028642529
N           0.52807734682085  -10.32532531229999  -11.48153259530513
C           2.65641813497939   -8.89277157392608   -9.27939155051902
N           2.73020963154915   -8.91864288036120   -8.13456060261466
Cl          6.26436472601557   -8.42259027170617  -15.82233342586974
H           7.82796737163585   -8.31953781938711    5.02679597232995
H           4.14699086725417   -4.54223643094595    2.70793862841679
H           4.46065568646661   -6.11569395600371   -0.64667326362101
H           3.09494404927968   -2.53403073988362   -2.54463814957484
H           3.78776982025412   -2.44374730406465    1.46939273632495
H           6.31525100997737   -6.55117673032473   -1.86652398242725
H           6.18707137452279   -7.95908170887762   -5.84589257510966
H           5.49019611436312   -6.64435539445037   -7.57619614645622
H           2.48509903781224   -5.94451343835943  -10.55181193140887
H           1.59635552279103   -5.07730581881929   -6.67452578373708
H           6.01101421370871   -6.55120086822439  -10.20061049762140
H           1.66303140907813   -9.65338022583581  -13.81515884681034
