94
 SCF done       -193.092597163034          0.000793180468
C          -0.73747513421864   -4.07826529745148   -1.67186108092819
C          -1.92585689050014   -4.49679464152559   -2.18314403948081
S          -1.91276710359518   -6.19709921184485   -2.48321598864599
C          -0.26871701510440   -6.35233179248968   -1.91000086408065
Cl          0.52232755745250   -7.84873419864954   -1.88483155033804
C           0.21286315103814   -5.13970489662267   -1.51488048569588
C           1.45402491241542   -4.60271427282816   -0.96045264544562
O           2.48903952125364   -5.19942462252224   -0.72420333753828
C           1.20561640002690   -3.16327233245547   -0.76569742071396
C          -0.13486521966512   -2.83770853208242   -1.22082691458333
C          -0.76171237611307   -1.61808352887730   -1.23781078983042
C          -2.08203047487894   -1.48091771310964   -1.71581149072303
N          -3.15439533468113   -1.35247165496290   -2.10210599827204
C          -0.20183753330252   -0.40080700552586   -0.80522873837194
N           0.21383467298539    0.61485171072026   -0.46544259994335
C           2.09699296027238   -2.26907090853845   -0.22734490744342
C           3.37536461378145   -2.47133988925159    0.30530671027187
S           4.22456340946985   -3.98341066291454    0.40885463305225
C           5.57571322799992   -3.24977105434175    1.18416836501320
C           5.38333908160079   -1.87601258116559    1.41514784124693
C           4.13555124200247   -1.42353014411276    0.89347006189422
C           3.77856868695952   -0.07468750028918    1.03086736252589
C           4.61923321603496    0.78585350904094    1.70601234022982
C           4.28024248972069    2.15338845085911    1.84342007134402
N           4.01022386960185    3.26093432076712    1.95077074373589
C           5.82198062047885    0.31065916074427    2.30196838426289
C           6.63392872645971    1.19647417997554    3.04930481854246
N           7.31239097848365    1.89231092966462    3.65524492750835
C           6.19414898077295   -1.00861450075735    2.16341548268910
C           6.67571934791404   -4.07766223539275    1.54755659654955
N           8.01054280498648   -3.76526430451376    1.44420314844624
C           8.59230391853242   -2.73474320417189    0.61242619352362
C           8.34601880857589   -3.01363014827838   -0.86765212313095
C           8.82324511340072   -4.82973670495608    1.91709747271962
O          10.03351783955411   -4.80067519425603    1.91298247946402
C           7.87703603912184   -5.82766092953141    2.35800381146047
C           6.57566223574906   -5.35260105236036    2.09216254258940
C           5.63446328255634   -6.34261623586977    2.57436497921969
O           4.42483280065606   -6.36702649657024    2.59898691078833
N           6.44889543720107   -7.38855351346825    3.06347622607761
C           5.83050470182667   -8.54542732604530    3.66557319442796
C           5.95217915648257   -8.53633715591197    5.18714585590229
C           7.78937016867059   -7.08975696807839    2.95086666287653
C           8.93652697293413   -7.82954250564070    3.30305447805161
C           9.06115614986256   -9.11394064913117    3.74681563501563
C          10.30524747329634   -9.70313029074357    4.03276129532003
S          11.78360565612857   -8.80839933800362    3.96344234397201
C          12.75185937975878  -10.17419380231808    4.41333814037239
C          11.93717534932568  -11.30674693997204    4.62549929882969
C          10.55291651981775  -11.04408773589931    4.40091943593381
C           9.61419777740099  -12.07472997244249    4.54350512131754
C          10.03970115347438  -13.33632336448516    4.89775347289840
C           9.09673084850351  -14.38060899854346    5.04434333301709
N           8.31242636827553  -15.20714937096752    5.16142721620500
C          11.42347509650136  -13.59921314297556    5.11718202456824
C          11.82938126063381  -14.90622198527030    5.47819004157719
N          12.16770849011197  -15.95975458890653    5.77304176121125
C          12.35806371892492  -12.59724813129042    4.97900444531326
C          14.13344862205859  -10.09092617990220    4.65735756412307
C          15.03559945122283   -9.13179442841476    4.29501330742532
C          16.29450578075230   -9.01057961281489    5.09723809589716
O          16.70847200983806   -9.81082392016898    5.90120789501258
C          16.83884055224434   -7.70215626415492    4.71973354457039
C          17.87520607783157   -6.90018639966485    5.09505899735300
S          17.87815372287247   -5.42499985445947    4.15659025460584
C          16.48651092919492   -5.91593205430317    3.25955109721146
C          16.04649981653598   -7.13482541342101    3.66708084598671
C          15.00657274350410   -8.07955380293978    3.30164149366730
C          14.34521227803818   -8.07672181182764    2.09967831484997
C          14.49662753716569   -7.02120986776399    1.17739030613237
N          14.61020341681136   -6.16614216979583    0.42141420548320
C          13.55852205941991   -9.14744794086997    1.63776108610757
N          12.94666443460103  -10.03180858924840    1.23424077008964
Cl         19.04748549513490   -7.19301125839741    6.28170431104294
H          -2.80922669833946   -3.93144371814714   -2.40482139780574
H           1.76160787704405   -1.24214819029944   -0.17962578352662
H           2.85369688305400    0.31007940123192    0.62801922094274
H           7.07925386719929   -1.37343297436075    2.66186841440931
H           9.66479514356790   -2.75584644964255    0.82416997272469
H           8.19773463825966   -1.75244376640142    0.87692940610666
H           8.75217071981265   -3.98450406518418   -1.14137594800528
H           8.83407920221263   -2.25197369714788   -1.46872812249974
H           7.28079632952789   -3.00449008852822   -1.09104889813364
H           6.25060478898595   -9.45701019423139    3.23225396562149
H           4.77378214625685   -8.49008820112184    3.38645604472746
H           6.99283587454179   -8.50849855411828    5.50264682497153
H           5.48344106521774   -9.42603917700930    5.59859104510685
H           5.44759185838980   -7.66242750985255    5.59150731965605
H           9.84892148072901   -7.26340487442890    3.15007135179730
H           8.19828982726357   -9.74752242437782    3.87543205173988
H           8.56327820181598  -11.89637030503578    4.37524954069606
H          13.40328756252826  -12.81260271114423    5.13786717234622
H          14.53992641687178  -10.85232492357024    5.31750207401742
H          16.08726277893374   -5.26633104261655    2.50608876918842
