94
 SCF done       -186.263785419179          0.000456723159
C           1.02397649765639    2.17478047934244   -3.07172664154017
C          -0.06393051431505    2.98916136649581   -3.13971112013186
S          -1.50870455124123    2.07969421600135   -3.39239533109825
C          -0.63070640054462    0.56729113054235   -3.41042534718426
Cl         -1.42389024060868   -0.91286104176780   -3.62484515466927
C           0.70076386745388    0.78908039020955   -3.22543946372501
C           1.91909390944611   -0.02497212793033   -3.14389409940544
O           2.01049306409570   -1.21991801963638   -3.29754422351601
C           3.02046252214389    0.96289363922996   -2.91540835451368
C           2.45416737649410    2.30366090167635   -2.87783875189451
C           3.09717924561578    3.49416467251603   -2.65565603527930
C           2.38897230279588    4.71453633064117   -2.63465978893146
N           1.83316831611263    5.71811069317500   -2.61772335386612
C           4.47476013429725    3.67168628123422   -2.42036967973014
N           5.58263022689103    3.89595291445239   -2.21626659641964
C           4.35927259471193    0.69489085765167   -2.87813924668510
C           5.03261298930918   -0.54776521201098   -2.78174132536273
C           4.59648289461790   -1.78088421210892   -2.34233978856870
C           5.67934778830763   -2.70578235316401   -2.40527811625792
C           6.84630894878180   -1.95204926240624   -2.89046759305631
C           6.45646836621778   -0.66631094995895   -3.08686372819991
C           8.15740994596495   -2.42860601569597   -3.02453333500358
N           9.25145812603593   -2.76664856648591   -3.10750050376536
C           5.63912663746990   -4.04689073767593   -2.09137433591024
C           6.64121387007280   -5.02064280200941   -2.33128728178341
C           6.22292059254059   -6.24357670311758   -1.83276957440785
C           4.89787053216444   -6.05039489065012   -1.25359911593437
C           4.53182682107552   -4.75360074148749   -1.42179299054769
C           3.33153999053856   -4.20461367713025   -0.95255513073000
N           2.34675207925924   -3.80251888619651   -0.51997159121777
C           7.00250886091325   -7.42376191001693   -1.91696011766130
N           6.85932394772114   -8.58105388851348   -1.18960378547980
C           5.87999318954049   -8.89252866312238   -0.17485293322608
C           4.63961384614485   -9.55072973287599   -0.77489362607831
C           7.85077046716092   -9.52609571540116   -1.50286382261684
O           7.92998519775594  -10.61485954138807   -0.96769789580373
C           8.65340248698813   -8.88695099387316   -2.52041401874527
C           8.11557540938380   -7.60449010365313   -2.75077950503008
C           8.89268796869108   -6.97799017919713   -3.80430221571595
O           8.79736656071140   -5.91510453365605   -4.37299055312365
N           9.89182395881029   -7.92915356161066   -4.10645487995817
C          10.86487926137140   -7.67384729355316   -5.14124963632633
C          10.50881979583182   -8.38650884518704   -6.44342911513952
C           9.76269963793233   -9.06906212752085   -3.35850805056375
C          10.64067087129089  -10.17429933311573   -3.43871313963783
C          10.45846020183098  -11.29718164262189   -2.69103521678438
C          11.31500420933648  -12.42394586978279   -2.69442221539072
S          10.91035907207193  -13.80195202792274   -1.71113850443161
C          12.33436772697048  -14.65930596683988   -2.20002090146111
C          13.08511929811639  -13.88297998274676   -3.09580913662937
C          12.50575471086995  -12.63885568008174   -3.36768296447832
C          14.31122494383277  -14.25837195460976   -3.67359834588516
N          15.32313035981426  -14.50285049390333   -4.15594661111845
C          12.56687393837392  -15.96233078987106   -1.69959047033427
C          13.62138710156179  -16.75116466962869   -2.03315449926762
C          13.79542575369973  -18.06003630795892   -1.52783942013065
C          14.69679163856680  -18.97637920594548   -1.97741760114254
C          15.05596557465408  -20.15029887240004   -1.12152671124144
O          14.45852684521285  -20.53703242588555   -0.14648712060653
C          16.30238901762428  -20.65556364134066   -1.70900097061821
C          17.22882778088227  -21.61327117108068   -1.42187691049615
S          18.49842069651762  -21.61705718555161   -2.62322808955405
C          17.75714015991690  -20.33077299344612   -3.50455822394055
C          16.60794139794844  -19.92298727234903   -2.90441522872020
C          15.54641452906972  -18.96425644245357   -3.15392778307240
C          15.31634130833943  -18.35184432728709   -4.35776481123315
C          16.22880121180701  -18.48138896789677   -5.42685574815563
N          16.96988453140116  -18.57960101674967   -6.29666832220384
C          14.13892753618360  -17.65783762459628   -4.70234000074839
N          13.17446251121885  -17.13902651899645   -5.04617091036972
Cl         17.24334990885633  -22.69621982055916   -0.11982631081847
H          -0.12276004119761    4.05661988687202   -3.06289827073976
H           5.02817000940475    1.54664426288398   -2.93520911990671
H           3.60574407257917   -2.03095557701483   -2.02229624258372
H           7.07521687424487    0.14735572133332   -3.41862375504217
H           7.56698752621614   -4.83175371145734   -2.83748357802171
H           4.28152613123849   -6.80421854979951   -0.80462026275141
H           5.63299411375583   -7.98522305151867    0.37943333985614
H           6.36120566048505   -9.59955189596977    0.50788068737850
H           4.19398570341336   -8.92749738035699   -1.54740827768254
H           3.90268023352814   -9.72951673878321    0.00327802683868
H           4.91182816627981  -10.50421209325220   -1.22066085881054
H          11.85742015834663   -7.97036000026608   -4.79117430736107
H          10.85697982909474   -6.59212659241113   -5.30116752474360
H          10.46380175908175   -9.46442559915356   -6.30237144266870
H          11.25583604157848   -8.16305642749161   -7.19972745932714
H           9.54108119909984   -8.04364791904818   -6.80075135866719
H          11.48017416361407  -10.10158203600835   -4.11403102262275
H           9.60151117781653  -11.35423396936835   -2.03199248366728
H          12.95504864998984  -11.92359407229579   -4.03311977009971
H          11.80828691492292  -16.35242583341279   -1.03269521998278
H          14.37684749335240  -16.36679512806817   -2.70067990452600
H          13.21113094270943  -18.35415651764626   -0.66263616290816
H          18.22695186252756  -19.96256515686457   -4.39491110888799
