98
 SCF done       -198.245685731338          0.000185727749
C           3.32514152772365    3.26284997847904   -1.70282521821154
C           2.76172111245558    4.24690646236786   -2.45613777052505
S           3.51510946360630    4.35527577662190   -4.00348584623153
C           4.62467682685533    3.05705095574839   -3.62843127737680
Cl          5.77398074602204    2.52382391260446   -4.74772482418278
C           4.39294574674595    2.58175665095111   -2.37354946087080
C           4.96076719860606    1.55882855201813   -1.49396280387329
O           6.00611218669679    0.96757032642136   -1.60913422760015
C           4.04552144210027    1.54718345596692   -0.29809127761153
C           3.13746149498845    2.68189158765806   -0.38949841007054
C           2.23591838828835    3.12032488974212    0.54256030580245
C           1.39789902260241    4.22783035965705    0.29145688499872
N           0.71156541945172    5.12802280057418    0.10647472119116
C           2.04828778288853    2.56052205987534    1.82167997182830
N           1.85673056463532    2.14178988252444    2.87331335627067
C           4.10268375963898    0.62444032887520    0.69308961486511
C           4.80390227300552   -0.60999454625421    0.56401919473807
S           5.53234172576598   -1.40413805615176    1.94352219251989
C           4.94853165725381   -1.40349445771474   -0.54867545460971
C           4.49311047949738   -1.39798423989008   -1.95549081237229
O           3.83023393671552   -0.58250218556625   -2.55057141921272
N           4.94535923950011   -2.59542048521790   -2.47476183758669
C           4.81603789975561   -2.95547142864712   -3.87025838848075
C           6.05218563237152   -2.50792939944697   -4.64240629511799
C           5.59531221017916   -3.41310656083332   -1.55024672661790
O           5.92186976809016   -4.55208374625588   -1.75140166812641
C           5.64554513706762   -2.60322725720002   -0.31676086607138
C           6.07724437805196   -2.76247162048612    0.98146490640325
C           6.95317321279020   -3.78860047927187    1.43611640261721
N           7.00132274322726   -4.34017648582076    2.68774681659636
C           6.09345278711560   -4.08551945421771    3.77913426752814
C           4.70103402444967   -4.64481196053749    3.50380577581704
C           7.98832484558259   -5.35627599006692    2.76928467726974
O           8.16953036736338   -6.02214438962493    3.76126240051974
C           8.61340967023612   -5.33849906602965    1.46358193027511
C           7.94171273382775   -4.38161937675841    0.66426104633202
C           8.61734016878539   -4.31852342938373   -0.61528287957159
O           8.47674960959153   -3.60027686597336   -1.57867062050999
N           9.61371410389527   -5.31871550808448   -0.53035516696178
C          10.54463748189212   -5.47304585105863   -1.62424300170238
C          11.94844630230048   -4.99444730565271   -1.26728503405596
C           9.63344638988204   -5.91340374382302    0.71014825086327
C          10.50666712435343   -6.91644405661030    1.21657784762275
C          11.25580999992581   -7.79957394796446    0.51287794963396
C          12.11776537226216   -8.75937877163998    1.10747176986261
S          12.85413943619159   -9.97449709578343    0.08672411512417
C          12.54928151192337   -8.94019013911612    2.40759742119409
C          12.37207387520710   -8.29537627059976    3.72066823087092
O          11.73832144174253   -7.32272484203911    4.03904887403711
N          13.14506159479997   -9.05231657845524    4.59826278276109
C          13.21045599781608   -8.77467958426115    6.01814748959253
C          12.01691894007132   -9.37459243584825    6.75236589135094
C          13.81170691481379  -10.10184441074055    3.99683179907773
O          14.52302215334005  -10.89434997390334    4.56910494782851
C          13.46262038144605  -10.00442479917203    2.56709616189111
C          13.76409180111693  -10.68172917036278    1.40444756269581
C          14.57826911529877  -11.81731274966718    1.15544207566278
C          15.67278182624940  -12.26846789440451    1.81759382279008
C          16.08897603106926  -13.69629399643732    1.58977441114990
O          15.68488822421008  -14.42308597147955    0.71603535893865
C          17.02697310427944  -13.97722947217281    2.67812887986512
C          17.70894071539435  -15.05462857803094    3.16183134447036
S          18.65686572568235  -14.60067855744833    4.55772304321282
C          18.13084454712234  -12.95951049646940    4.46443715833765
C          17.27256567425305  -12.77839030757922    3.42655243253052
C          16.53841205039309  -11.68295008726581    2.82451586976105
C          16.80216380689548  -10.35950544276812    3.05007875459049
C          17.72533778904146   -9.94676757484936    4.03372619020535
N          18.46504500020221   -9.58757796239724    4.83312740381015
C          16.23485835372958   -9.29611901355570    2.32731562641619
N          15.80679519141739   -8.40081973869816    1.74924974420816
Cl         17.70928915055912  -16.64167256289728    2.57204070635581
H           1.95747981168637    4.91327115384107   -2.21447404348147
H           3.57196842535206    0.78216744769549    1.62319701092324
H           3.91710803316200   -2.46889879606525   -4.25590942716586
H           4.70435269353560   -4.04119114067293   -3.92061822844366
H           6.15232917651355   -1.42612752043802   -4.59184381512236
H           5.97053882007993   -2.80764956217109   -5.68340556811818
H           6.94129991085065   -2.96023437094263   -4.20883398070802
H           6.04527301238174   -3.00987114386270    3.97349392761366
H           6.52997307619350   -4.58455747109036    4.64887326373867
H           4.26251400989735   -4.18226010508293    2.62218627624931
H           4.05415467977588   -4.45284979445658    4.35476162649159
H           4.75526368834710   -5.71847476420420    3.34136396970702
H          10.14116197706665   -4.85204127901426   -2.43019368407154
H          10.55325532593736   -6.50995611821311   -1.96925165292459
H          11.91986684317219   -3.94660489299136   -0.97892137940445
H          12.59856881581148   -5.09760697720800   -2.13158368207578
H          12.36797065286215   -5.56822993165505   -0.44473935106736
H          10.51354710535337   -6.96640265218196    2.29898249329145
H          11.20887890900752   -7.84330196898568   -0.56491008443950
H          13.22241279974062   -7.68900131419705    6.14064679862089
H          14.14633916269288   -9.20073647133514    6.38692377252618
H          11.09159213807766   -8.94703183830865    6.37359250231314
H          12.09355913373236   -9.15711893405945    7.81368845668692
H          11.99258097574070  -10.45367388511412    6.61698699729909
H          14.24868804481489  -12.45633581968903    0.34002108458242
H          18.47948846676937  -12.25107345707152    5.18920962392110
