88
 SCF done       -183.003106063577          0.000818255992
C           5.25650155537232    2.48421102218441    4.62781945177507
C           5.06904058355628    3.01213088684683    5.86821001850012
S           6.23057235944220    2.39971609217601    6.98892413915369
C           6.99713904393284    1.41589429548598    5.76207915277172
Cl          8.31478127391527    0.41878721255539    6.10681451843903
C           6.35885189110348    1.57303726862800    4.56796336412602
C           6.51734100319119    1.06165490850511    3.20591566202448
O           7.44043650902053    0.42048163596011    2.76677838407891
C           5.34504819435339    1.63003862651019    2.45037779923940
C           4.63774753249092    2.56401983390250    3.31937570197102
C           3.55848638630309    3.35163128514332    3.02191920843273
C           2.97399808493207    4.18689844101417    3.99902708596585
N           2.48613553121087    4.87216121633972    4.77888850390715
C           2.90028951446710    3.44189060791437    1.77845563680964
N           2.30369650038899    3.56411974667820    0.80593519936430
C           5.01726783539988    1.35470444512104    1.15764537265656
C           5.55312309151816    0.30807942735024    0.36272415301518
O           6.24950893566972   -0.71360364184895    0.91122879653323
C           5.45794195773021    0.07525634865985   -1.00177322349888
C           4.94418321474003    0.60718191643583   -2.27615674487772
O           4.31713899719635    1.59946733492123   -2.52262003976216
N           5.36609989983835   -0.33529046777775   -3.21298534985960
C           6.09880875207874   -1.40472403089639   -2.70204131368909
O           6.55157753605794   -2.31252452226187   -3.34724840332571
C           6.15292900719384   -1.12485730833747   -1.26251633352148
C           6.63484725186800   -1.58343402017279   -0.04406986051571
C           7.41807546818368   -2.71805784644116    0.29325248847797
C           7.82936069072653   -2.91620897789481    1.57298102580963
C           8.61260059799951   -3.95248352165067    2.13783716521709
N           9.25098452295903   -5.01368648220292    1.53536588879820
C           9.35522431160899   -5.32192169169594    0.12857546137204
C          10.32387679287298   -4.38668375657149   -0.59028739719019
C           9.93656203574268   -5.80857908379965    2.47290011495983
O          10.57809964910629   -6.79595443252274    2.17153429535282
C           9.67117136202961   -5.18370456294917    3.74937175053808
C           8.86034511663050   -4.05168018130081    3.50694996028306
C           8.56625746376728   -3.42534406284109    4.77877346081890
O           7.90507160901000   -2.45756943179449    5.08494129703947
N           9.25494192681529   -4.22306891264968    5.71775011141932
C           9.16440597624222   -3.95379387576295    7.13224506755414
C           8.16176681977006   -4.87445473128733    7.82375510163778
C           9.90652386193321   -5.27631728516597    5.12169176431305
C          10.66957304124539   -6.23721799940133    5.83193803547493
C          11.26944851831630   -7.28398261231571    5.21014909144353
C          12.02793737181760   -8.28828391153644    5.86938848706868
S          12.65473639832562   -9.61365996446667    4.94909249852832
C          13.32463089648136  -10.35424945430485    6.36252199747815
C          14.09104858887901  -11.56290082787391    6.20157171494764
O          14.57658213456630  -12.23195181110531    7.08838631521200
C          13.08167495135428   -9.57878430302092    7.50298353072933
C          12.37540138116137   -8.40748562179843    7.20294680575299
C          13.53928806869648   -9.88086755622556    8.84118012647850
C          13.51275355504458  -11.06044086946427    9.48579100568979
C          14.35684934366969  -11.25509003528600   10.71376994772397
O          14.84188729028164  -10.38517245563559   11.39278894144629
C          14.47968781350485  -12.71063841201614   10.82850636269930
C          15.17605657178211  -13.59898736539661   11.59392676303115
S          14.81514965712268  -15.23835233837022   11.10936187489327
C          13.72104013045123  -14.70843140947550    9.88649485920214
C          13.64686712897333  -13.35154363637989    9.85061986091387
C          12.92877432647799  -12.34212178124659    9.10431784841111
C          11.80492370663293  -12.55494313985316    8.35813899346653
C          11.32637528263132  -13.85783733829228    8.10334184231236
N          10.93156233240629  -14.91112304187732    7.88055155392634
C          10.99640742410453  -11.52961619607527    7.83099220025870
N          10.28381059626621  -10.72494123924378    7.42675977052720
Cl         16.25762343891197  -13.26943945976228   12.85409419592907
H           4.33379045356397    3.71488632196114    6.20622819056171
H           4.26533162868485    1.94678377975081    0.65245876132004
H           5.15862513898649   -0.24403828595532   -4.19764179652578
H           7.65201906141116   -3.36960905323646   -0.53200980786122
H           7.52792451463383   -2.17627257617952    2.30605267416286
H           8.36343298730678   -5.30064735993612   -0.32830648215531
H           9.73641075741628   -6.34656898675935    0.07964162888787
H          10.02828309006857   -3.34687237176147   -0.47299109077336
H          10.34636005702186   -4.62636060204423   -1.64951851223373
H          11.32518952897779   -4.50916396395195   -0.18452190389271
H           8.82945249322338   -2.91653421861850    7.22178105430302
H          10.15534100258065   -4.04164830969980    7.58671317109482
H           7.17388995715094   -4.73689057968723    7.39118845778841
H           8.11294362174492   -4.63635907111007    8.88271941343659
H           8.44529513789778   -5.91847243460704    7.71068679646155
H          10.75729826357374   -6.11855950152414    6.90142171859862
H          11.16213931848410   -7.39370607004361    4.13868519171991
H          14.20791666478871  -11.85602352412487    5.14138990740946
H          12.09885533319582   -7.69119877660086    7.95513383459562
H          13.99285355906353   -9.05397500062322    9.37910647648938
H          13.22381683284054  -15.43124635884766    9.27060925805976
