84
 SCF done       -158.876732459265          0.000477071653
C           2.91116230284164    3.21097452632215   -0.86995959994285
C           2.67398516609722    4.54726299833717   -0.76185081499289
S           4.01553186887288    5.36322934507237   -0.04871665632474
C           4.92280742458581    3.87721555814868    0.10626334864912
Cl          6.47581499536820    3.85524201877010    0.77932782915810
C           4.19732093630846    2.82542605752204   -0.37092764752247
C           4.38342935517264    1.37934339408063   -0.51474179383005
O           5.36546355579820    0.72867235638593   -0.24820882827018
C           3.11181216040963    0.89624334725495   -1.15340842008758
C           2.21973727149976    2.03647980520282   -1.35622444405774
C           0.94929410138093    2.03178249640097   -1.86239222934341
C           0.19993145300711    3.22353038489201   -1.97477794492323
N          -0.42083586948078    4.18241926945244   -2.07711720599736
C           0.24351990215098    0.89867986081704   -2.31546666950870
N          -0.38408905980648    0.01748675537007   -2.69928177387644
C           2.89852794032345   -0.35917592986899   -1.60959639383413
C           3.71639050052602   -1.52444271805093   -1.35269547832845
C           4.27343937155022   -1.78200761097088   -0.10368807676781
C           5.03495533264430   -2.91880023858696    0.10909924615820
N           5.59225554247226   -3.08237480946342    1.42949933570247
O           5.03143932825298   -2.51419837882205    2.34098291532764
O           6.58208706088494   -3.77217880455690    1.55369603990921
C           5.27783674384601   -3.85203814028492   -0.91567602925075
C           4.68510952019639   -3.58671130525507   -2.15804543279236
C           3.91538892624646   -2.46760616653739   -2.37051705962888
C           6.02609914400134   -5.07416162967934   -0.70966863197778
C           6.78019149044253   -5.65125384027894   -1.65940831659087
C           7.50920576389309   -6.88589145260182   -1.51261446619041
C           7.62728342846801   -7.62094482205471   -0.32092233703080
N           8.25544964315800   -8.77047015910053   -0.25398384996081
C           8.81933721734935   -9.23228981647618   -1.37349735757422
N           8.81575550778482   -8.59571859627832   -2.54869457031823
C           8.17310718893048   -7.45376369860613   -2.61120023164912
C           9.47760169401221  -10.50633296377272   -1.32174950860821
S          10.24542555745482  -11.12925992677571   -2.74347603762377
C          10.70930219536439  -12.58541255271202   -1.90884364499515
C          10.27222575391269  -12.55657498468196   -0.57846542881141
C           9.58130192050408  -11.37255418233188   -0.26393137694384
C          10.48410704455569  -13.61619230106110    0.40672496303218
O          10.09687777202575  -13.55751217973232    1.54802375059031
C          11.41605166902184  -13.62196842963529   -2.56076218166802
C          11.84282476616970  -13.55937257639629   -3.84954008227550
C          12.51825293498544  -14.63355439833632   -4.47828022959656
N          12.96315923944491  -14.60457792831065   -5.78105786861611
C          12.80011624346751  -13.52251620232565   -6.72073861919088
C          11.38911821594547  -13.47875930446198   -7.30268464412326
C          13.58210389686992  -15.80984850937284   -6.15680817209822
O          14.04564364127266  -16.00480191289708   -7.26288980337666
C          13.51162836233533  -16.63279691346647   -4.96989052800549
C          12.85545751256988  -15.87905818328890   -3.95752195449118
C          12.78850699777454  -16.69625033046968   -2.77153104916432
O          12.33264670779718  -16.49036364221750   -1.66096625650818
N          13.41414616038075  -17.89952683932455   -3.14135672530175
C          13.49268371784616  -19.00702857507353   -2.22014268188343
C          12.40907489834225  -20.04821621861272   -2.49111680756381
C          13.84189103462604  -17.87546818117353   -4.44781410492770
C          14.51305788682682  -18.97476607300221   -5.07941951957808
C          14.90436771992561  -18.94840530845998   -6.35547139496124
H           1.80891470618041    5.11018554067288   -1.05146158954674
H           2.04891812952538   -0.53629285391151   -2.25819203579817
H           4.10953493226792   -1.11444844600870    0.72746038976936
H           4.81160825716028   -4.30331449434142   -2.95468000877166
H           3.46936741006036   -2.29929053106049   -3.33966835964380
H           5.97662871352551   -5.51714427952739    0.27396505533779
H           6.88754005166115   -5.17119089860803   -2.62474892755621
H           7.21107639059520   -7.26531588178125    0.61213984611717
H           8.17475774989833   -6.96268642912095   -3.57760986495269
H           9.16979408002551  -11.16655188694376    0.70735171738899
H          11.03251527956539  -14.49837586525445    0.03506595532438
H          11.61481057072218  -14.51707527460622   -1.98729916299639
H          11.65996653711678  -12.66131880905529   -4.42333870369894
H          13.52048347579849  -13.70905028624764   -7.52240416659503
H          13.05003534974767  -12.57534359036537   -6.23441349902436
H          11.17242108165929  -14.41117620238235   -7.81808276150527
H          11.31057823031036  -12.66162482195347   -8.01438093272322
H          10.64744021992591  -13.33452964648356   -6.52025133667273
H          13.34854806642270  -18.58066841005035   -1.22321033596606
H          14.48807959472926  -19.45710678754025   -2.26927817212832
H          11.42631599210595  -19.59378846878404   -2.39161315633467
H          12.49052565784419  -20.85998709272609   -1.77356994867935
H          12.50159726632192  -20.45587067517560   -3.49552868696883
H          14.69846018109002  -19.84876139449313   -4.47036413192453
H          14.73122724063671  -18.08876894506598   -6.98102006722483
H          15.40848607669076  -19.78889500756428   -6.80036366317295
