82
 SCF done       -173.974152349405          0.000835804611
C           0.55068257052113    0.95439298210071   -0.19409169774118
C          -0.51688492803870    1.78063880562727   -0.36734861229141
S          -1.69724949135868    1.06523680784623   -1.40189443944729
C          -0.73580518581653   -0.37938888144510   -1.60969825888528
Cl         -1.26828980032649   -1.66316834450084   -2.57715764926924
C           0.42806646807094   -0.28266682752858   -0.90565779384567
C           1.61059770749201   -1.11930458329845   -0.67722581718692
O           1.83239412644613   -2.22058021194477   -1.12135947430456
C           2.44863108388191   -0.32875597255553    0.28540073744334
C           1.81135847930120    0.96633871873222    0.51608074469189
C           2.31153728753998    2.03261759655044    1.20976761969526
C           1.58207588922222    3.23556401786227    1.33041284763636
N           0.99721432452403    4.21611805060346    1.43781576582790
C           3.57329912188660    2.08121897775961    1.83771014433047
N           4.59345650313914    2.18617500128352    2.35261426581383
C           3.49892094661031   -0.81637955913142    0.98539306678877
C           4.16971711848380   -2.07944179909153    0.76873855113440
C           4.56701880258036   -2.82861991827711    1.87281274375227
C           5.18010012094578   -4.06158161663031    1.71381637309564
N           5.55184829670619   -4.75488040735637    2.91993167325371
O           4.97390770964862   -4.44226507651708    3.94007016998061
O           6.42036402251884   -5.60130779629733    2.85981757456749
C           5.45261419904978   -4.58707402019956    0.43526898683582
C           5.09911869283479   -3.78756353832634   -0.66065718244004
C           4.47631129396411   -2.57147721879838   -0.50744740772476
C           6.01192604780163   -5.90559169865083    0.23399683888404
C           6.77470070215902   -6.24411452096477   -0.81738394988707
C           7.32331352340705   -7.56165197364408   -1.02879258367601
C           7.39616432001712   -8.54810116285175   -0.08154232945698
S           8.10246839617459   -9.99300524650890   -0.66925206374643
C           8.31520978695762   -9.30708442705720   -2.21527406453843
C           7.87305159130077   -8.01196514170108   -2.28077727372405
C           7.96873654375932   -7.20441036707386   -3.49815804661079
O           7.68430556887091   -6.03782136800525   -3.61520594399341
O           8.44356145200664   -7.95006120709354   -4.53364775530236
C           8.67459547238954   -7.32690383637404   -5.72372343516525
C           9.01665865010614   -8.03553673518211   -6.80094447517061
C           9.31539503091895   -7.48594450805760   -8.10758312826638
C           9.38490460263762   -8.34200147521146   -9.20259285427186
C           9.68005954561593   -7.87108532584203  -10.47404748353634
N           9.73267191927232   -8.85607920925643  -11.52066584392057
O           9.17037928883491   -9.91036229839538  -11.32089365516805
O          10.32737590939256   -8.59007630310125  -12.54843531833873
C           9.93921770742766   -6.50779209006503  -10.70738545985075
C           9.85671505846735   -5.65970301229974   -9.59604190190182
C           9.55788989656619   -6.12541442901578   -8.33668477920840
C          10.26148804073030   -5.98082207335394  -12.01679952138499
C          11.05805819698291   -4.91800020365823  -12.22336507429992
C          11.37574100698328   -4.40518311405523  -13.52361315089012
C          11.60844425114264   -5.08728915327395  -14.66734068039353
C          11.56721281044661   -4.34338795862691  -15.97094858824534
O          11.55212835033712   -3.14412459348639  -16.10683658014385
C          11.49486295309259   -5.39511717848326  -16.98802839213182
C          11.33943207975182   -5.47224917895968  -18.34061991623627
S          11.33874197203534   -7.13909256503491  -18.86240844711644
C          11.55942149129200   -7.71239691182041  -17.24871846440669
C          11.62332262680608   -6.68119688012282  -16.36575642794157
C          11.83011937283961   -6.50363786921281  -14.93951280655159
C          12.35271959150085   -7.45810051517932  -14.11501864290631
C          12.61222630304046   -8.76613218791510  -14.58019346046513
N          12.84496854438543   -9.82432507618068  -14.95431123420934
C          12.75115638562152   -7.25578137563545  -12.77920377654718
N          13.13256425871369   -7.13921023873523  -11.70306548465794
Cl         11.16440858993065   -4.20036812789461  -19.44594697140342
H          -0.69658898694045    2.75470959674868    0.04250945396991
H           3.86140312025500   -0.24600796452796    1.83268948103914
H           4.38104388121663   -2.47142991091137    2.87562035920824
H           5.29654479910722   -4.15849187776195   -1.65383990927068
H           4.23787623317907   -1.98198009008427   -1.37736157760118
H           5.80291897046995   -6.64326111746630    0.99439550204662
H           7.02962230142692   -5.51461812289332   -1.57122495689911
H           7.10248058892068   -8.49124669979733    0.94716893626088
H           8.76043808264943   -9.88083413105452   -3.00320429317029
H           8.54685196332826   -6.25175603696673   -5.70580851388031
H           9.06770269366128   -9.11154104947715   -6.71120773481004
H           9.21227575045007   -9.40125542961149   -9.07948843699872
H          10.01454126837308   -4.60261002036549   -9.74170854106182
H           9.52260984601781   -5.42951780684888   -7.51407992849155
H           9.84691682126545   -6.49061565413737  -12.87548913851645
H          11.46898536955358   -4.37061380781974  -11.38543073257849
H          11.39702077716375   -3.32304321438446  -13.62061718862613
H          11.61599331939574   -8.76703031085272  -17.06653258633300
