70
 SCF done       -148.875196017743          0.000694904730
C           9.20022403663965   -6.72228711963003    3.21348174108250
C          10.09827981730173   -7.62181301935044    3.69987387326141
S           9.93811821259900   -9.15105806593713    2.91478154842738
C           8.63153123075835   -8.57943434623247    1.90770834695239
Cl          7.89018463975860   -9.57395445422621    0.75081803049687
C           8.35979816679531   -7.27030243427974    2.19175158163210
C           7.42275008608735   -6.26073443729350    1.72096167796954
O           6.52935033560125   -6.41871043700698    0.91075790873566
C           7.75923361348713   -5.02052034716468    2.48525565847436
C           8.84216678676761   -5.33465535265372    3.42218802507532
C           9.45364185765090   -4.50697830930439    4.32194581332933
C          10.49970152948488   -4.97410804873924    5.14910229787985
N          11.34928477652493   -5.33497397964558    5.82938715658742
C           9.15670406179562   -3.14762072433855    4.55134954597879
N           8.97357423479732   -2.04011049292917    4.79128129465051
C           7.13085234468866   -3.82097595921047    2.40902888513255
C           6.07709877727495   -3.42102648623031    1.50801909567783
C           5.97570278520281   -3.85040166532453    0.18719706701771
C           4.87355845009481   -3.47446057866181   -0.58288662404679
C           3.97876504465820   -2.55682228634528   -0.01420653797406
N           4.09590618105441   -2.10704106831368    1.21719249491280
C           5.08625649502301   -2.53482141133630    1.96891914462645
C           4.67271190057914   -4.03449030557099   -1.89240166954805
S           3.79332112889702   -3.22393331963065   -3.15639883129957
C           3.96078765367680   -4.54470144358743   -4.28382783113328
C           4.66328291455443   -5.59133127312018   -3.68530388349910
C           5.05719385381807   -5.28282893495890   -2.34324494796519
N           5.70376533615769   -6.35696462123352   -1.82359995410138
C           5.72810773013492   -7.34085163836902   -2.78749208883660
C           6.33277597850078   -8.58055812094883   -2.53740657122214
N           6.83456345944111   -9.59046869467358   -2.32384134744935
C           5.11438477232668   -6.90625868925705   -3.94556197368461
C           3.40486252520221   -4.46168327954885   -5.57991673119849
S           2.61393773071978   -3.01088512723410   -6.13280739367734
C           2.23585608970971   -3.72649511946650   -7.67077240676049
C           2.71849387472564   -5.04046250175621   -7.73045391669924
C           3.37395806625634   -5.43604379226016   -6.55631416140398
C           2.57511590204400   -5.94638954389424   -8.86455067712858
O           3.03630682356924   -7.05889629009462   -8.90838455136676
C           1.50033535759958   -3.02117056503648   -8.64377984432524
C           1.12897021479091   -1.71546355470472   -8.53375595567032
C           0.39870392411472   -0.99222867772682   -9.50326298767455
C          -0.45804064689288   -1.42262803817433  -10.47658105548664
C          -0.75401599516211   -0.48451964557861  -11.60566269285935
O          -0.44864151640713    0.68283315468378  -11.66408751790457
C          -1.43789508838172   -1.31176431378999  -12.60564183284043
C          -1.91345017977050   -1.16674029425143  -13.87387436895158
S          -2.62932029872249   -2.66047408923453  -14.43415545608710
C          -2.28566612827404   -3.45809554829623  -12.94158340140160
C          -1.65362968382591   -2.62493382285410  -12.07330857109047
C          -1.15501319905941   -2.67116241168439  -10.70867925908416
C          -1.50814503603703   -3.64348746245692   -9.80634362162580
C          -2.26975765264788   -4.76448525767083  -10.19607885983541
N          -2.87343443912376   -5.69185281897882  -10.50007944112468
C          -1.22867859272198   -3.61833557217795   -8.42895885745319
N          -1.04435326338546   -3.64244976926823   -7.29578901660360
Cl         -1.87210753362072    0.21313410515739  -14.85574848854867
H          10.84165414382356   -7.49752883349904    4.46215329765564
H           7.40034054480867   -3.06623952547486    3.13771713108478
H           6.77152588585330   -4.42151443282351   -0.26138391420006
H           3.14291463072325   -2.17625109296377   -0.58630363322697
H           5.10059197191552   -2.17054257887801    2.98691585959190
H           5.99320411903606   -6.47874404893461   -0.86128926930199
H           5.01168089686420   -7.47863982722825   -4.84453718582793
H           3.79343719094107   -6.41733677466209   -6.44217864365054
H           2.00237497445918   -5.53727827005101   -9.71836080628007
H           1.25733772562438   -3.56172352590031   -9.54897051348595
H           1.48292365896370   -1.15287523956666   -7.67899191450320
H           0.57879294256760    0.07931980388774   -9.52662207137461
H          -2.56851813265387   -4.48463735252966  -12.81865619695143
