87
 SCF done       -173.644658210740          0.000625910080
C          -0.23718217283347    0.30412835201775    1.31913439772272
C          -1.43226830115484    0.82708059756496    1.70253827239508
S          -1.59287486285023    0.82444888150293    3.42195832507325
C          -0.01467644756814    0.10225545671624    3.63196212019358
Cl          0.59974828544359   -0.24322286233206    5.17260266991596
C           0.57555966563216   -0.11159408430382    2.42288569498767
C           1.83709699804901   -0.66070979619195    1.92159854383368
O           2.76102785741322   -1.10569457848721    2.57670176404504
C           1.75123459067601   -0.55722791480119    0.45157995844985
C           0.47589511478047    0.03539761575454    0.08402576693780
C          -0.01795958063148    0.30802328595196   -1.16534092465986
C          -1.29254282147985    0.88840275076596   -1.33583092782374
N          -2.32699022296348    1.35889978033266   -1.49396896306666
C           0.63075875409104    0.06345970367146   -2.39120452369854
N           1.10066021175803   -0.10879558996089   -3.42506834393411
C           2.71875887422894   -0.95422729075746   -0.43547303087913
C           3.97020624574213   -1.55040942617331   -0.21409896590886
C           4.83043671519755   -1.90240287074815   -1.26154844192267
C           6.00181466893382   -2.49675577698003   -0.85112218637293
C           6.08620541684328   -2.62214688009380    0.53796069307948
S           4.67480351722210   -1.97514003300767    1.31655610840162
C           7.17972649570036   -3.22817415846443    1.20664162302121
N           7.34488224914573   -3.36170767156815    2.56574558576335
C           6.46297447339820   -2.94344803950738    3.63007314149423
C           5.37074357069825   -3.97329238580847    3.90214696919766
C           8.52934876875751   -4.04973134832162    2.88485798365063
O           8.88512457435567   -4.27737720592317    4.02443867617373
C           9.13146498983863   -4.34849999252865    1.60790815534755
C           8.28991423012332   -3.81962607050649    0.59606389781225
C           8.89728484332755   -4.12300694807539   -0.68103368899048
O           8.57167712227615   -3.87893343688852   -1.82653351990763
N          10.06340318105984   -4.83680250853804   -0.35282428037040
C          10.98305433878000   -5.26859385647163   -1.37707528473579
C          12.20945371573958   -4.36282790375147   -1.45661701276692
C          10.21427671712964   -4.98290862029303    1.00564154275093
C          11.27071025960593   -5.72198011241191    1.60495431282837
C          11.41808188926933   -5.82292478057877    2.94546420694335
C          12.41612271555040   -6.60946160003787    3.62523205150350
C          12.57597440745705   -6.44897724171717    5.00380952645125
C          13.49571172768116   -7.20625320646385    5.70879816917719
N          13.56734258880776   -7.00405081736367    7.13343601661812
O          13.13877608607134   -5.95941920525495    7.57134375018843
O          14.04532705421505   -7.89008534046000    7.81438878025540
C          14.29366610868509   -8.17429596494594    5.07330853354987
C          14.12426202740651   -8.32615331649890    3.69156508591306
C          13.22085728836314   -7.56657631914693    2.98661322438119
C          15.28713342525932   -8.96773746925619    5.76558641825324
C          15.49326366660548  -10.27355530619454    5.50700462952692
C          16.41788928359174  -11.10660141867458    6.20727171050776
C          17.59608800990035  -10.80360631611764    6.80703393427898
C          18.16113086794482  -11.78829136735299    7.78965755549826
O          17.79643704181619  -12.92719225030527    7.94806392887325
C          19.19673647339692  -11.03724613776871    8.50595575752811
C          20.03612911806876  -11.24201733001342    9.55998172772423
S          21.02108310336222   -9.82522346978142    9.84135468278699
C          20.29696315754450   -8.98002744963963    8.52303598830870
C          19.34884809050009   -9.74065308479985    7.91290375711841
C          18.45184911079675   -9.62904665974335    6.77788173458695
C          18.58157775234119   -8.69270864141889    5.78686658692785
C          19.53189442295253   -7.65340330350418    5.87568483986696
N          20.29204174631733   -6.79635710072350    5.93431584865835
C          17.86704232417337   -8.69142763946114    4.57560792551971
N          17.33430033417095   -8.65281083581230    3.55938095789390
Cl         20.18461176613339  -12.62517797838397   10.52530272221165
H          -2.23146473459334    1.21427538285544    1.10240460039380
H           2.50494913312498   -0.80026832801996   -1.48675171360258
H           4.57520224124797   -1.72019099225303   -2.29058230525462
H           6.77446614281950   -2.83814852562573   -1.51710941947833
H           6.02959025281099   -1.96990197490499    3.39440013965341
H           7.09439637236821   -2.84569136431779    4.51844257032793
H           4.76351188525413   -4.14333622318464    3.01680279355533
H           4.72501659074605   -3.61402620409685    4.69741734513623
H           5.81787039305227   -4.91573970283916    4.20946596627674
H          10.42850474818330   -5.21983688089757   -2.31837081339980
H          11.27542746268829   -6.30702228031476   -1.19627896653877
H          11.90347351994276   -3.34446844841535   -1.68291749681378
H          12.87227263002586   -4.70892138769674   -2.24474550944938
H          12.75513991969920   -4.35845228136249   -0.51543877693716
H          11.95971369831094   -6.21694956851632    0.93622840794298
H          10.73654910696828   -5.27749387404357    3.58494010290260
H          11.97057065121146   -5.73300365994094    5.54077883350896
H          14.75572578338887   -9.03094414182150    3.17422066184186
H          13.12507390810440   -7.72653408518313    1.92441974233475
H          15.83979681661953   -8.49073724105604    6.56363428048082
H          14.83793361617969  -10.78332320628795    4.81277574726643
H          16.10784511749039  -12.13998968457212    6.33800004135893
H          20.61445111950055   -7.98058283736550    8.30074760949640
