96
 SCF done       -203.128375471791          0.000816904019
C          12.79763021465410    0.84597529778862    2.32382712897696
C          14.11019582720863    1.17666811726181    2.46326700926470
S          14.29775930207771    2.85783106430041    2.80383616148618
C          12.57450162852089    3.13032193060513    2.75826573923747
Cl         11.91039903575895    4.66489456164502    3.01173513005663
C          11.91519170692331    1.96378042417403    2.49357472083053
C          10.53054191355377    1.54391616578685    2.31369862527715
O           9.52437039069698    2.21256256039839    2.39309545556519
C          10.61319185709976    0.06795432809385    2.03894740131452
C          12.01747808894659   -0.33519140319856    2.02139141141065
C          12.52786708055161   -1.56592374028559    1.72434654620004
C          13.92053337687323   -1.80360216915780    1.73441114580162
N          15.04836601296401   -2.00942897535867    1.75103123190886
C          11.77243472803204   -2.69994047468395    1.35707507835106
N          11.21775172431021   -3.64855275519170    1.02797987581993
C           9.54097032887992   -0.74000297567984    1.92827579926336
C           8.16705477062552   -0.27795795850953    1.93977591395680
C           7.66021432465905    0.76085878875744    1.14054983341122
C           8.44594852706043    1.42764831974938    0.07217665765011
O           9.52245857732811    1.12312901081610   -0.34754508929093
S           7.48290045094751    2.76911223416462   -0.59937751321700
C           6.01106941130816    2.30921289353258    0.32980971243427
O           4.94715870038116    2.81121202154784    0.13498983013628
C           6.35582793998374    1.21876252973106    1.26610026154968
C           5.41478006301027    0.66160462902400    2.16819694009197
C           5.90478200441963   -0.43525504868868    2.90070749120446
C           7.22867517602622   -0.85792263787756    2.79133956992070
C           7.45051818407609   -1.92588748774632    3.79213409500719
O           8.44578584864077   -2.52653321026964    4.05403654283054
O           6.25803637799099   -2.12117601112162    4.43604443464607
C           5.28559568323816   -1.26844213289489    3.96027898140246
O           4.17454354147882   -1.28868551045709    4.39285933295983
C           4.11702526693730    1.25001493093851    2.33435005312553
C           2.97103230476316    0.57022410814330    2.56616587245267
C           1.73054319801172    1.23534347337326    2.75599793586456
N           0.52245847794007    0.58872910927720    2.84842785467794
C           0.30096898994871   -0.83415256163756    2.74979499946115
C           0.34223120346672   -1.31655265544556    1.30205082072989
C          -0.54345257350268    1.48675973173548    3.01755736964966
O          -1.70588162398886    1.14390100376439    3.11162696577970
C           0.08791259880446    2.78887432426004    3.05140664368328
C           1.48146268573955    2.59921127798984    2.89261820773342
C           2.12124605115068    3.89619070610661    2.97368099827300
O           3.28463453596963    4.23485805277322    2.92169901217295
N           1.05710564533454    4.79459390367426    3.17245047611068
C           1.28708070259127    6.21802387361634    3.23078446894424
C           0.95952439563585    6.89926983204975    1.90441050937603
C          -0.15830339162560    4.15387685605670    3.21306057933160
C          -1.39446713116129    4.82019632347320    3.39425453360105
C          -2.58386113216456    4.16580748131800    3.32653513119021
C          -3.85336810905798    4.78026145414955    3.46737714031081
S          -5.28315798177468    3.85282184805463    3.11261526440285
C          -6.31504577367795    5.20115041965615    3.45505790360819
C          -5.55495783801790    6.31182799375814    3.84705377968176
C          -4.17775818066127    6.07204863320460    3.84479438929701
C          -6.13169448522010    7.54488810677489    4.20034972274174
N          -6.58975876072740    8.55331862884680    4.49687348034610
C          -7.71844385047351    5.16594915917444    3.29799851342862
C          -8.39650073440668    4.09956382970046    2.79708819881483
C          -9.79104765250204    4.11063697725398    2.57821165045738
C         -10.51954373622859    3.20647869889216    1.86393913965130
C         -12.00520192723633    3.16656867996767    2.03543128139802
O         -12.68502479099413    3.99497122875047    2.59143546225330
C         -12.40810328027524    1.89221557787539    1.42856676132340
C         -13.55348033546916    1.16845434890430    1.28493008604315
S         -13.23508111500482   -0.31613103289950    0.41779153215039
C         -11.55990888460140    0.06615942158405    0.25040198016707
C         -11.26719662458144    1.25887549105329    0.83336588866210
C         -10.11108436749634    2.12426398817318    0.98964503206904
C          -8.95405356531515    1.99896698831500    0.26468341002727
C          -8.73785834683910    0.88676511555562   -0.57675213497386
N          -8.53947410198699   -0.02063096955229   -1.25016577492597
C          -7.92622616467578    2.95856354149416    0.17542497003845
N          -7.07881980925025    3.71729319908788    0.01949443969534
Cl        -15.11093937185051    1.55674085920655    1.82553047033082
H          14.97959615556459    0.55357550509192    2.39074277132641
H           9.66949356521090   -1.81456557004281    1.89917306579520
H           4.07515989651144    2.32743832233555    2.23028947861448
H           2.96449676600325   -0.50824057719564    2.57980455213743
H          -0.69342448740497   -1.01486842941832    3.16729329352927
H           1.04162083521376   -1.35828295679960    3.35973813145924
H          -0.42978588454384   -0.81794763705402    0.72103204513164
H           0.16464999920485   -2.38769544229920    1.26742614865261
H           1.30756664243794   -1.10626315090377    0.84675782230594
H           2.35048395255643    6.34204962836303    3.45332651280053
H           0.70466262954445    6.65105340539364    4.04899895133598
H           1.58033856356521    6.48596694495870    1.11349895891834
H           1.15694040579779    7.96492393932511    1.97950545363648
H          -0.08461515131722    6.75352123163547    1.63595510871695
H          -1.37041921672755    5.88554931650366    3.56959927827755
H          -2.58774139154211    3.10206769937787    3.12686947969747
H          -3.45348447556448    6.81770769733004    4.11914083193715
H          -8.25074408577211    6.07767536805570    3.54069528874432
H          -7.84266662287874    3.20352187148942    2.55236448600549
H         -10.36746782618195    4.89048313176307    3.06514004853664
H         -10.91266348429003   -0.62070464216655   -0.25781218225237
