71
 SCF done       -146.527783889159          0.000481772523
C           2.46750408777654    2.14790118473318    3.09575494895108
C           2.02283973166041    3.24305981089249    3.76998434696492
S           2.54133086191816    3.21567247948861    5.41534129419293
C           3.37680249193450    1.69619091033499    5.19652554209331
Cl          4.20560787965018    0.95037644792887    6.47074482047570
C           3.24204668584311    1.26027751627333    3.91125923343208
C           3.67894701215029    0.10494121024874    3.12408742449840
O           4.36165482482800   -0.82548445222082    3.48758105897563
C           3.14452583157198    0.36266099583687    1.74714395527743
C           2.37869645812734    1.60436907575616    1.75678748455446
C           1.66233467542041    2.15890410907549    0.73188308630518
C           0.95464673739399    3.36844024923195    0.90195262424154
N           0.37876379351097    4.35281840372762    1.02380743697523
C           1.53014741334147    1.61730883433539   -0.56264534535383
N           1.38081946123203    1.22079025815365   -1.62933130897632
C           3.47708841137016   -0.35968234646799    0.64954577511536
C           4.20775049115406   -1.59716818772422    0.66339186130101
C           3.96151946348759   -2.64167571450227    1.56760772200289
N           4.68542530334725   -3.73448675451555    1.59808298931437
C           5.67191159112193   -3.85719075765764    0.70255672906989
N           5.93059319495204   -2.95964667136757   -0.25571567638555
C           5.22255642473272   -1.86062536706319   -0.27292438966742
C           6.50620264918612   -5.01782819800041    0.71938332058504
S           7.79506515556911   -5.08361648693766   -0.43111162404239
C           8.26936775333813   -6.65502080810449    0.15068249482568
C           7.46160343096003   -7.08439996804351    1.19043305491425
C           6.45284878062669   -6.15363020546301    1.50940744493467
C           5.45962166410267   -6.38977355889342    2.58944546207196
S           5.95460060998648   -5.39196816910789    4.07875612387119
C           5.39586905380919   -7.86215761306492    2.96953355043306
C           6.80150127420659   -8.40285759269577    3.20136639865981
C           7.59972524385655   -8.39110126402003    1.89917592772338
C           9.34829972499841   -7.32190784350207   -0.49768132689839
S           9.72885111725119   -8.99558358301399   -0.25392236041975
C          10.99812765760685   -8.93260685500361   -1.42287187230142
C          11.77931862728788  -10.10118845346945   -1.74283197727853
O          12.62820524461480  -10.14706627087250   -2.60162180439559
C          11.10394277242782   -7.66550359381692   -1.99562207896965
C          10.17154070689531   -6.76593951067069   -1.45317488139749
C          12.08703153930202   -7.32444286859169   -2.98857462959473
C          11.93240623139667   -6.46930012055910   -4.02219761589583
C          13.14823953908960   -5.94337842162449   -4.73051035331565
O          14.27492643166357   -6.35585149935220   -4.62501107805610
C          12.64979815358989   -4.79691546723879   -5.49994843824760
C          13.17659648203960   -3.81877349586032   -6.28956091125992
S          11.91533460938535   -2.75676939290353   -6.87109146235372
C          10.69157973630151   -3.65298842651564   -6.04945277498641
C          11.22519201062006   -4.70076207819658   -5.36508306821885
C          10.74887784706793   -5.80595608206565   -4.55607647053491
C           9.44579692703338   -6.21672383034834   -4.49799072239145
C           8.41368986994700   -5.46539896846057   -5.10091075348832
N           7.56201065711176   -4.85610462026834   -5.56874274283994
C           8.98613353216065   -7.41987446914473   -3.92585848260792
N           8.54179191318823   -8.40307036040878   -3.53440232920819
Cl         14.79840544556181   -3.57642146697242   -6.71164725205962
H           1.43173297584086    4.06499670619947    3.41765092352830
H           3.22537039878073    0.02321950332501   -0.33204163214645
H           3.12675622483098   -2.60745049430588    2.25380057523989
H           5.47856129387437   -1.13825225370230   -1.03747977118050
H           4.48117543221589   -6.00036892732141    2.30434444386690
H           5.45775497482423   -4.25148981138074    3.61202617096816
H           4.91109390723780   -8.41638229858917    2.16171609462693
H           4.79434905719757   -7.97283129260189    3.87235985514026
H           7.29893368367080   -7.77671294940362    3.94446973158574
H           6.75637670830480   -9.42001451446200    3.59097458318680
H           7.24222123276739   -9.18683939758638    1.23663567027943
H           8.65329273884763   -8.59417605968504    2.10617193874069
H          11.53906915949275  -10.97974372269924   -1.11542008460815
H          10.11438499318726   -5.72589885670717   -1.72364995181147
H          13.06992798216734   -7.76964905761023   -2.87410369772924
H           9.66943401805891   -3.33837626462135   -6.12224322984112
