98
 SCF done       -196.212380562422          0.000776892256
C           1.63170974496133    1.60771966601593   -1.62102555865536
C           1.24296644482741    2.77508724480309   -2.20351608938940
S           1.53048111520318    2.74938013230161   -3.90376599605855
C           2.19035524772082    1.13279208595394   -3.83613342564196
Cl          2.74739745681493    0.34497209308733   -5.22697770306985
C           2.17608621046286    0.66648908465896   -2.55394808570782
C           2.57903713595038   -0.55967939530364   -1.86188768096072
O           3.06192288315472   -1.55770233162750   -2.34039165019506
C           2.19060884432357   -0.32671927634451   -0.42768455925939
C           1.66223846960547    1.03056689808858   -0.29483993568983
C           1.31818225377978    1.68355162609829    0.85526820507060
C           0.84208940628466    3.01299200195292    0.82934688883678
N           0.45171020088716    4.09110523123909    0.82084750862645
C           1.41704777454346    1.15221312986319    2.15792630872170
N           1.49038328558561    0.77743675773172    3.23999511789933
C           2.15520116583590   -1.28247716052206    0.52693695922928
C           2.71929666811907   -2.61355666786660    0.42414600179934
C           2.00296433703384   -3.69842811765794    0.92227658466569
C           2.49947615279504   -4.98730861163628    0.81153822587463
N           1.63477923603480   -6.05294096428238    1.24854523207261
O           0.75932013453109   -5.77349809378673    2.03778298156303
O           1.82254181437804   -7.16479969814767    0.79627926449044
C           3.76669747604983   -5.24415375368562    0.25107261515942
C           4.49147172920958   -4.13075012618823   -0.19722372959889
C           3.98387912229801   -2.85426079817321   -0.12783321858656
C           4.34628003002282   -6.56856649360629    0.20282902929109
C           5.21856239272144   -6.94302540904722   -0.75732605871297
C           5.90798232320755   -8.17685186280461   -0.93229464492906
N           5.87208557311790   -9.34018213668509   -0.21329775717519
C           5.04624620883893   -9.69727369855860    0.91714101559442
C           3.61384590514854  -10.02672356568422    0.50681538037073
C           6.76374852431733  -10.31173072814012   -0.74740448270009
O           6.90914581502695  -11.41060351674297   -0.26875707675009
C           7.37605376847176   -9.65184776985414   -1.88337410422139
C           6.83552581125254   -8.35486249294934   -1.96223688301328
C           7.46236744512622   -7.67315410040765   -3.07302232690062
O           7.31151494118428   -6.56372353132160   -3.53616136891513
N           8.37371709509805   -8.61955093973136   -3.58909543525537
C           9.11768338827302   -8.30325950782566   -4.78589339123666
C          10.42351766336291   -7.57498152434737   -4.47288057595278
C           8.34010686669068   -9.80311874948075   -2.88427755424227
C           9.10953947599605  -10.97418635619369   -3.07454082585929
C          10.28582026264550  -11.10951038702525   -3.74890411521679
C          10.94942434741978  -12.35489944193593   -3.85146101652037
N          10.45690973338794  -13.47552435913117   -3.32548509925927
C          11.36768249139608  -14.43174383010392   -3.55525438646054
C          12.54512293428877  -13.88111438746094   -4.24379253939872
C          13.54022436786018  -14.92550165143463   -4.53171759089908
O          14.60807743086972  -14.79976006837781   -5.09230647675753
C          12.89658094860657  -16.12637188342820   -3.97645648420888
C          11.57873655270147  -15.78293989550805   -3.38682906162454
N          10.97420085760347  -16.88827390548124   -2.89801091590749
C          11.80354898431429  -17.87479291775601   -3.14837242272574
C          13.01729900170352  -17.47105724453039   -3.82670038746549
C          12.27776904649034  -12.56176364425261   -4.47433891369141
C          13.14534467638768  -11.68967848784733   -5.20159484477969
C          12.80665281221146  -10.65454280013698   -5.99569493096299
C          13.77165484381516   -9.90195768430939   -6.73339054136686
C          14.97223966011058  -10.29530401531295   -7.22616315945364
C          15.95485835827082   -9.22830761059856   -7.61143963130409
O          15.71666343711653   -8.05015098580638   -7.72884525656416
C          17.23091291096203   -9.93500859453783   -7.74433021735588
C          18.53788044166839   -9.61409969795409   -7.96304394808202
S          19.52800235375405  -11.05341722957954   -7.97303242325362
C          18.16316634590908  -12.07298212766913   -7.69289947254045
C          17.01964725683075  -11.34524682504186   -7.59253846738355
C          15.60196889402999  -11.59943372886366   -7.40563464931685
C          15.01579675114313  -12.81828952563965   -7.60696100015670
C          15.78542309643256  -13.96392558660394   -7.90806629639080
N          16.40076945203265  -14.89133752426836   -8.18256941050614
C          13.62888898656775  -13.05778956123594   -7.63104359294306
N          12.50777379199950  -13.29341675624772   -7.69948013997248
Cl         19.21112470713781   -8.07778098389548   -8.20116930219347
H           0.80435470764818    3.64495900793846   -1.75614432946397
H           1.62964994883498   -1.07730699852286    1.45198018103874
H           1.02533452438011   -3.55855122670168    1.36089240405115
H           5.48461537069049   -4.28083879513710   -0.58931190478563
H           4.58204078657906   -2.02644831507526   -0.47158550985245
H           4.03443455833096   -7.26171730021565    0.96675984108672
H           5.45371957534189   -6.24222600238570   -1.54950317030567
H           5.07867264546050   -8.90075486483715    1.66436083115426
H           5.51195116243725  -10.59073220828135    1.34504561749832
H           3.10679636654029   -9.16822055336661    0.07507022161548
H           3.05415608672783  -10.34970628042537    1.37985511232842
H           3.61649212324398  -10.83531668708588   -0.21984698166862
H           8.48161854145079   -7.63657977288741   -5.37713204146936
H           9.28512837540321   -9.22098673692166   -5.35317425546193
H          10.20139600850572   -6.62205795815238   -3.99964828440182
H          10.96984883704696   -7.38393678107290   -5.39260258503785
H          11.05405442950777   -8.15136209104318   -3.79878446987957
H           8.72749502329482  -11.85395604542477   -2.57106094393243
H          10.79020617813720  -10.26209532307826   -4.18183217867398
H          11.55530713960790  -18.87938752730191   -2.85264757001033
H          13.81320179294034  -18.12401274544967   -4.12535490390528
H          14.19088400669148  -11.96775791569883   -5.13539577528018
H          11.77935071180819  -10.33030379864602   -6.08111055865953
H          13.54831379831229   -8.84894652889375   -6.88285031872674
H          18.30376402819162  -13.13235178392020   -7.61102893501413
