89
 SCF done       -175.194419668012          0.000326906391
C          11.52173187638580   -7.16364384745498    3.24020411359799
C          12.24162150404836   -8.22676571192975    3.69514861266815
S          12.91972920932056   -9.12536684661833    2.38994963376069
C          12.22995420767248   -8.04524805862308    1.20088425871011
Cl         12.46784839162424   -8.28892164840156   -0.45731163300401
C          11.51350668215125   -7.05935303772895    1.81066322886530
C          10.74806824693957   -5.87805016504839    1.39682755496992
O          10.66626563948533   -5.39189464721038    0.29726100118029
C          10.17702810681985   -5.33437331550173    2.68021145477681
C          10.74257010879974   -6.08290531665329    3.80508340226896
C          10.57517215990858   -5.84825871438809    5.13935622520230
C          11.17791973070456   -6.67557284658866    6.11299796985092
N          11.65987292777382   -7.33784557113218    6.91561901074330
C           9.82453732829530   -4.79435804916326    5.70176917870775
N           9.23429187969943   -3.96260439519592    6.22711785493483
C           9.29250213558517   -4.32522659347302    2.73303853308830
C           8.67474751492145   -3.76065401336858    1.52884457114224
N           8.73328992886281   -2.44220816978590    1.36734414849692
C           8.19505846882820   -1.96140199710985    0.25856735845664
C           7.59940393037185   -2.76940537800074   -0.69377178371143
C           7.54361941641029   -4.14214850673519   -0.41060723385424
N           8.07226260598084   -4.61338417761212    0.71878884643448
C           6.94229775626649   -5.14276076411947   -1.26510475431071
C           6.61618969418106   -4.95384517283728   -2.56038162521707
C           6.06616795552090   -5.98515307631838   -3.37437901791098
N           5.76595245435892   -5.81984513869659   -4.70709210971982
C           5.88896555955767   -4.60853490657292   -5.48045022221991
C           4.74210833737498   -3.63824358558889   -5.20619544874111
C           5.25072456564492   -6.99917115879115   -5.28364346726796
O           4.92164761635643   -7.09311640692658   -6.44802308292937
C           5.25156296862820   -7.94609065066491   -4.19438724714795
C           5.75322719905871   -7.29921872761163   -3.03883550437230
C           5.75417065109305   -8.27198604651412   -1.96912288137654
O           6.09882234812520   -8.20846938384452   -0.80709128898490
N           5.24405478428532   -9.45041892607761   -2.55588386723084
C           5.09965621715866  -10.63752803683391   -1.74894570510418
C           3.67764377175007  -10.79237336358244   -1.21326462986193
C           4.93675224996213   -9.26657181587913   -3.88502295351058
C           4.42974971456378  -10.17222969727363   -4.85156195034320
C           3.97643496477301  -11.44227892409691   -4.70502898179625
C           3.52255579264231  -12.24369369371014   -5.78822029968060
S           2.87766090980089  -13.83098579898708   -5.45906164485081
C           2.60759309583806  -14.13851380344841   -7.13992476144995
C           3.01182397690849  -13.04302595974380   -7.91718933905780
C           3.51820009653723  -11.98799932780879   -7.14379340971897
C           2.96679935648339  -12.99557230616596   -9.37224193413547
O           2.59787184841315  -13.87696981372385  -10.11178014688777
C           2.10591117077754  -15.36326243297027   -7.62856417085662
C           1.77935453518547  -16.44075983092048   -6.86969264994677
C           1.30569681000998  -17.66575324011911   -7.40282384825916
C           1.48614373453803  -18.20268016507627   -8.64230950325972
C           0.55556930449574  -19.29796061149388   -9.06948449688464
O          -0.21296352193124  -19.89978748559732   -8.35835784100187
C           0.76571303819156  -19.41674901567755  -10.51557309168293
C           0.22095432662152  -20.10738343736965  -11.55640724535810
S           1.02591114372359  -19.69518823021200  -13.05230505024398
C           2.09587418495288  -18.60312595866367  -12.25043386224298
C           1.84081673184991  -18.55719272449795  -10.91622697540806
C           2.38255313114345  -17.89306660449522   -9.74342508861243
C           3.61842350745433  -17.30245328407946   -9.71273746467087
C           4.40639342192879  -17.18128912294175  -10.87695691946407
N           5.06577499767708  -17.07643809257113  -11.80969534932537
C           4.26865949738532  -16.82167514162968   -8.56237394317269
N           4.86148067639370  -16.43451655612725   -7.65830292345795
Cl         -1.05119288799676  -21.22537828148747  -11.51868797486695
H          12.42063158323484   -8.54576293604394    4.70279988570032
H           8.97969663087043   -3.88934993059481    3.67173377239189
H           8.25183336695473   -0.88683491713665    0.13951631660487
H           7.17833764805139   -2.35066780492169   -1.59236387154419
H           6.80824827085670   -6.11006012354258   -0.79984524544865
H           6.79148778835227   -3.99846512937068   -3.03429139333297
H           5.86144202956538   -4.91803618097550   -6.52919158918421
H           6.85613607978258   -4.13926279615158   -5.27894620800774
H           3.79409947858995   -4.10382784581211   -5.46388358162325
H           4.86461216605114   -2.74326894929001   -5.80998384977125
H           4.71149717661353   -3.35325746398803   -4.15667771402800
H           5.78594303144097  -10.51151035650995   -0.90571136527882
H           5.41307175390121  -11.51074839342212   -2.32558337839403
H           3.44239622990633   -9.95908867222252   -0.55591088498613
H           3.59503698317657  -11.71546821191284   -0.64604517177079
H           2.94941230515888  -10.80741450752103   -2.02129800332709
H           4.40765955116402   -9.72978617699242   -5.83898305487054
H           3.92584559189311  -11.91628648926004   -3.73780263677224
H           3.88169978054491  -11.07124139991826   -7.57172495923522
H           3.32727585620525  -12.03245559963564   -9.77866623086760
H           1.97304737048755  -15.40088435403740   -8.70169075250054
H           1.81477744334519  -16.35672895602888   -5.79041747840536
H           0.65845540298612  -18.25218001242080   -6.75646043165749
H           2.82561679285123  -18.06586508305544  -12.82273380877557
