60
 SCF done       -130.623701372187          0.000763705546
C           2.53330676698777    1.84118249355593    3.01391550706889
C           2.25555448746528    2.92607329470814    3.78776722829786
S           3.63337035326345    3.40560056108142    4.70767008867581
C           4.61032559741936    2.11979939706416    4.03908777483774
Cl          6.22776856253024    1.91094708363670    4.49362217792692
C           3.88151488463980    1.37702902214816    3.15758852230574
C           4.10676060040403    0.21226739560994    2.29796324777710
O           5.12834653423541   -0.41402295464986    2.14046952874624
C           2.79486766298559   -0.00276294504866    1.60193506274057
C           1.83823609924399    0.99951943324207    2.06303927936069
C           0.52157062700161    1.12967245823464    1.71710675485404
C          -0.28508629687519    2.14936441532183    2.26776466158647
N          -0.95187629748689    2.97402660781380    2.70424669802586
C          -0.17580123255197    0.30000106352269    0.81589103130010
N          -0.79426361389172   -0.34467637198377    0.09543072505174
C           2.59960923510181   -0.91101999893134    0.61930645421620
C           3.55041865723210   -1.92198269601311    0.22488481991919
C           4.17019619745512   -2.79853692727606    1.13005491294267
N           5.02961545172596   -3.70965968360306    0.74845287797578
C           5.29619136370022   -3.81872797285069   -0.55224237359164
N           4.72760015574630   -3.07220594945427   -1.49725948082484
C           3.88343420478074   -2.14169035874129   -1.11892087478424
C           6.25057161847683   -4.83498600846994   -0.96902777095645
C           6.83978198891015   -5.72074652177465   -0.05983242840770
N           7.69137967660956   -6.64787962091678   -0.43824844779374
C           7.97638206030215   -6.72892690596363   -1.73845939606557
N           7.48373922027132   -5.92586032254634   -2.68213046796851
C           6.63856605418366   -4.99237927370845   -2.30415880287930
C           8.89567069417464   -7.77771905668175   -2.15962457979351
C           9.46156561659155   -8.68090000110840   -1.25238771594485
N          10.29334333118090   -9.62462954952256   -1.63312546450251
C          10.54984252927398   -9.73050402528651   -2.93684012258782
N          10.06755563490105   -8.91893514774195   -3.88166901192447
C           9.26717758441776   -7.94920712294872   -3.49712349852646
C          11.48565990686994  -10.76812302439729   -3.31965464608338
C          11.68281354195175  -11.30973438674696   -4.53704159568477
C          12.95073230954090  -12.08066301533655   -4.79851740464173
O          13.70716970853403  -12.51695435361950   -3.96920416133272
C          13.05586164412982  -12.10914145639711   -6.26026317068339
C          13.96164598922177  -12.53064434340955   -7.18912308042148
S          13.37258702127304  -12.21696323153435   -8.80339537455874
C          11.90543611435704  -11.53130765160602   -8.20662017609946
C          11.87752379033999  -11.53755099883398   -6.84710102671783
C          10.95282143242946  -11.16947888732184   -5.79250706313309
C           9.61711093905295  -10.95311368010569   -5.96455374933463
C           9.04311644774128  -10.89890963076182   -7.25310739973350
N           8.57590508126402  -10.83949061328621   -8.29875341228522
C           8.67334413475905  -10.86585376789846   -4.91962139757835
N           7.84653673045156  -10.87274841967060   -4.12421276592039
Cl         15.46517919072233  -13.26244732553201   -6.92366620835523
H           1.34188551686976    3.47900431466262    3.88073034090107
H           1.67738210153408   -0.89359294006941    0.05135575998359
H           3.92900846919968   -2.77851718684491    2.18397720572533
H           3.46883495813875   -1.52581399906679   -1.90680118561412
H           6.60681983982976   -5.66871098728621    0.99509918140680
H           6.24925610195306   -4.34181653002579   -3.07566486387017
H           9.23519127811899   -8.62027317360894   -0.19676952402050
H           8.89470103920406   -7.28638532256065   -4.26615957514122
H          12.14788484911514  -11.09304238422472   -2.52511662479745
H          11.17407585301195  -11.16524081524655   -8.89948499907261
