74
 SCF done       -158.846756298452          0.000516446067
C           5.36779241021585    1.96158468452228   -5.85992047721058
C           5.83051008146256    2.92044149743084   -6.70730268023306
S           7.30600831725356    2.43009082602484   -7.45760198636879
C           7.31073115023909    0.90273562043812   -6.60927512869181
Cl          8.53891396049096   -0.24078213796027   -6.83406054535417
C           6.21391063367720    0.80964137725246   -5.80282181878604
C           5.67353023126826   -0.16923915592160   -4.86317570297723
O           6.20405628554528   -1.20699666476072   -4.52756740298675
C           4.36391309930289    0.40382683051267   -4.41997007524776
C           4.24599499521501    1.75680657065378   -4.96690603447040
C           3.30444429705055    2.70786773863895   -4.68406450606138
C           3.34249380711148    3.97632017399047   -5.30436132995221
N           3.35688494836901    5.01087209400354   -5.79916253669272
C           2.24263002644177    2.59130220942363   -3.76319623810706
N           1.36851227621333    2.57749486958506   -3.01936538813830
C           3.34555093961918   -0.20666283977609   -3.74811144203963
C           3.25525658231438   -1.50910770937257   -3.19312458311621
S           1.68798703992218   -2.09161618355065   -2.69149501017012
C           2.35613582514948   -3.61734328462570   -2.23068169491149
C           1.48121167689682   -4.66158808027965   -1.74393288855655
O           0.28971722514694   -4.54356827590157   -1.59828502051871
C           3.73206828207684   -3.66718440656595   -2.44808566052190
C           4.22634195712510   -2.46173465947617   -2.96583648869726
C           4.63112359842151   -4.77508088068760   -2.21745023524647
S           4.63344873903934   -5.70850151112608   -0.75099900786221
C           6.06345592708416   -6.57640942337679   -1.24361940433048
C           6.48355239622769   -6.16445437935808   -2.48169872986054
C           5.66721758213962   -5.14954754380625   -3.03371339972017
C           5.98861047759092   -4.69120215795655   -4.41593921769224
C           7.46878046949941   -4.27324643525891   -4.49237028725274
C           7.89813196426201   -4.28028719089811   -5.95044005448279
F           7.09083592793348   -3.54795543867762   -6.73214111786928
F           9.13550920624761   -3.78401933640969   -6.12028088132552
F           7.91458329932387   -5.51535085287657   -6.48022397430832
C           8.39447929365616   -5.18296792335365   -3.65837505879119
C           7.72831630135487   -6.50194996040818   -3.23448074765332
C           6.62977442085796   -7.57600038341977   -0.36406921331415
C           6.55696699431785   -7.43908132810844    1.02027714893704
C           7.09913009170159   -8.42174760043128    1.84248242648639
C           7.77076536681902   -9.48197794115623    1.21559389157311
N           7.82330489448175   -9.62702702070039   -0.08853515680700
C           7.24345036426923   -8.73220620903005   -0.86152320919461
C           7.04579764073867   -8.32472272054262    3.28412930374557
C           6.83106968210952   -9.32713879756445    4.15989751852578
C           7.17649723750552   -9.13283273012339    5.60799770536142
O           7.42596150232424   -8.08352769671370    6.14747895001586
C           7.19128931677497  -10.49073690161233    6.16041104331645
C           7.49899457741166  -11.08368403759803    7.34917766703416
S           7.27132687936980  -12.81355683490341    7.24697922051265
C           6.75277603739182  -12.71465044653318    5.60462936989922
C           6.76284462659195  -11.42836620305805    5.16223500018089
C           6.41128250892383  -10.70909964477443    3.95357175366653
C           5.65800614256359  -11.21713103633817    2.93267146347975
C           5.29154495373555  -12.58015208746010    2.90338164012229
N           5.00132802326145  -13.68897169429660    2.86651585265267
C           5.10455859502272  -10.46139312177853    1.87915223150736
N           4.57644988240541   -9.89010498109085    1.03566111618771
Cl          8.03263845623829  -10.34673747508040    8.77719945821072
H           5.41051223517410    3.87637283581967   -6.94959792344770
H           2.42630475134998    0.35973418403562   -3.65390117007240
H           2.00476730582772   -5.60816364239326   -1.51316938286016
H           5.26898999494136   -2.28043238888938   -3.13742043325401
H           5.35158995847601   -3.87190122981288   -4.74345439545279
H           5.82735122186771   -5.53658734087603   -5.09378735622913
H           7.56149733165974   -3.23433291490025   -4.16249913841179
H           8.69248644609575   -4.64851923501281   -2.75511928941802
H           9.30139018527021   -5.40422548072585   -4.22322936999487
H           8.42313585975788   -7.07356298398514   -2.61982845994104
H           7.48512673840245   -7.09341475414508   -4.12092080699331
H           6.04771770799480   -6.58992936574099    1.45328778743113
H           8.29638035620935  -10.22643293384662    1.79969156609833
H           7.25076071370936   -8.95067190483782   -1.91928236633382
H           7.27646329780283   -7.35645724342001    3.71711461550022
H           6.48623646985361  -13.61091676928329    5.08038769753670
