85
 SCF done       -187.052561355948          0.000522311748
C          -1.83211340549388   -2.78502534295443   -0.09174998604733
C          -2.77142992843633   -2.77284939039123    0.89069161803451
S          -3.49916790529797   -4.32760748069787    1.07698331408606
C          -2.52438929364472   -5.00930209327814   -0.20441488318728
Cl         -2.68011428765046   -6.63257914707755   -0.66177373880619
C          -1.68807891552167   -4.06576544198863   -0.72161016202509
C          -0.65861673669059   -3.99239684250130   -1.76595139798661
O          -0.29425052853839   -4.84612832130802   -2.53545534412402
C          -0.09485563078853   -2.60803586830255   -1.63106905841004
C          -0.93771184749237   -1.84113124357642   -0.73300994750002
C          -1.04177024482892   -0.47951684105823   -0.63882656859563
C          -1.93487979873448    0.12745308503971    0.26729024018159
N          -2.64016931432922    0.62851368875374    1.02086937581887
C          -0.33509309988018    0.42885788632108   -1.44934271147787
N           0.20315674862830    1.20080705317364   -2.10648759182442
C           1.08166997179643   -2.31827949105335   -2.23979780561115
C           1.99510227294380   -1.24948748755280   -1.98319446009997
C           2.86511097805150   -0.80764843341943   -3.00217360824351
C           3.80080671871797    0.25905190190970   -2.80023017196988
N           4.49682771410003    0.74508983632319   -3.85440314256881
C           4.35705401792331    0.18203284982414   -5.00417051366600
C           3.50048068874695   -0.94421921000376   -5.18406780063337
N           2.77384719862147   -1.39521490818793   -4.21895460183489
F           3.42801595918673   -1.55709769325269   -6.35995613306516
F           5.03799631099300    0.68578536293490   -6.03083625214765
C           3.97840151696278    0.85685609191385   -1.53938991732540
C           3.15952763700126    0.38346383640620   -0.50305416664955
C           2.16354010349867   -0.64035566302157   -0.72353775902330
N           1.51716073718261   -0.94668524489209    0.40595157919726
S           2.10174220052101   -0.04836962181644    1.60005257377187
N           3.20418689068637    0.75851840353627    0.78023124890400
C           4.95932067122795    1.89734061080258   -1.32041308028689
C           4.65950435034492    3.05195918669085   -0.57767427797829
C           5.64787014131765    4.06005329917253   -0.31037850898049
N           5.30275178821038    5.15627216784049    0.40629681537452
C           4.09278731395533    5.26657838755207    0.84088095558309
C           3.10730766859438    4.27841978624272    0.55072945451768
N           3.39048296010322    3.22957014007880   -0.14066431978291
F           1.85525132042903    4.42994013449436    0.97110677327963
F           3.78259566819849    6.34773394551406    1.54895414986103
C           6.96683380638986    3.95475188853536   -0.79297163247881
C           7.25460276617303    2.81958592525307   -1.57316995890345
C           6.26615337727913    1.79469254282514   -1.82356005772240
N           6.78194837488102    0.77155666393640   -2.51236802727543
S           8.31409238404708    1.08320972203660   -2.84157482122712
N           8.43740386364937    2.50463389979999   -2.11362839952526
C           7.99573588812614    4.91592762836797   -0.47491282810367
C           8.08510197290066    5.56902907461720    0.76973822897381
N           9.05430778056572    6.39118146112871    1.06031585574053
C          10.01566515217341    6.59814314424885    0.15741643196029
N          10.01354059915825    6.04251939113193   -1.05758005321154
C           9.02584329423997    5.24082673616435   -1.37111942491794
C          11.09038832960505    7.46259474856617    0.56938991746149
N          12.13413177201233    7.88197805284411   -0.21439372900376
C          12.40814735396181    7.52811216964120   -1.58663142908132
C          13.08638190154584    6.16566789572704   -1.69082227141496
C          13.01430460109956    8.71670150815623    0.49862463350011
O          14.01171953373539    9.20976542921399    0.00906852219430
C          12.43702319597973    8.80288270735852    1.82023603437885
C          11.25018616274692    8.01915001290218    1.82949382558338
C          10.67454407730827    8.09522872172055    3.15935082172740
O           9.69813433402254    7.60956367628992    3.67537507071840
N          11.56447531962672    8.95135117276116    3.86165547561396
C          11.35102569477879    9.24255494342975    5.25825587772224
C          12.21778803960959    8.36590665684263    6.15924854035893
C          12.60963614565546    9.36221934016192    3.08080969440597
C          13.65515875137223   10.22795044514930    3.54847081746089
C          14.68149233847383   10.60290300292536    2.78181528026157
H          -3.08244563159197   -1.96622098329084    1.52436627031204
H           1.40347258092103   -3.02219396879809   -3.00075310576455
H           7.35791779552847    5.39104109181461    1.54879747210985
H           9.03573276522729    4.84275414815582   -2.37653552882134
H          13.07654688665995    8.30445803242960   -1.96964389103401
H          11.47404151984537    7.52743980025156   -2.14951419290390
H          14.00645901979962    6.15935944364053   -1.11125173566568
H          13.32621449554630    5.95589548190411   -2.72914262064023
H          12.42431613572163    5.38750497983333   -1.32077991879844
H          10.29532755437666    9.03196352518843    5.45135998897865
H          11.53873774333658   10.30297565049570    5.44684569274868
H          11.98088405219131    7.31798178786055    5.99281513034231
H          12.02477029823943    8.60462164932510    7.20152794217993
H          13.27512000316762    8.51902998440488    5.95362262270770
H          13.58061014114851   10.57597298887865    4.56948044570289
H          14.77674027349222   10.26784852098705    1.76223467711835
H          15.44955894487040   11.25489741697289    3.16098816729288
