77
 SCF done       -150.707619500412          0.000863237912
C          11.66839676253415    1.30602978742872   -2.65983536456641
C          12.31790583074959    2.26775401534138   -3.37117955087527
S          11.24603683909283    3.07315388548413   -4.45672255238121
C           9.88913472181106    2.09766198156053   -3.94277200519197
Cl          8.34703531917949    2.30506116983715   -4.61175884182794
C          10.27777177183507    1.20769995384076   -2.98669137276793
C           9.64352598941261    0.16284301982750   -2.17746797065836
O           8.47151181007703   -0.13460196730377   -2.15100244689286
C          10.75012935228750   -0.39329985287263   -1.33647461959971
C          11.98548339198017    0.32519500530033   -1.64256691555824
C          13.23490533752189    0.11840092783081   -1.12622966229378
C          14.33794436897432    0.89348973647197   -1.54589760435248
N          15.24415264443506    1.51537073838386   -1.87405619625295
C          13.58507036224927   -0.84778425242658   -0.16126962881627
N          13.94154779142119   -1.61339970870534    0.61624090039646
C          10.59735217990585   -1.32408105427801   -0.36500929512293
C           9.40204612161817   -2.08769116738538   -0.08689427075489
C           8.63455578847997   -2.69516618030365   -1.07951785591919
C           7.50084198834089   -3.42308434317876   -0.72825075676091
C           7.19734372870931   -3.51319243058498    0.63557901159786
N           7.92234889504587   -2.95097235054637    1.58250394793659
C           8.99343420415147   -2.26696974599145    1.24351468925733
C           6.67070783763398   -4.06649299383947   -1.73083518319768
C           6.09486934508002   -5.30936352936090   -1.63937899523187
C           5.30581898014512   -5.55885219905171   -2.83888442211616
C           5.45125935388629   -4.40774123250134   -3.64132011135760
C           4.84876193968276   -4.22764976557275   -4.88307006610743
C           5.10873651035182   -2.99003456389703   -5.51590898646868
C           5.89807964688947   -2.05221362393500   -4.89389304395613
C           6.48854045739873   -2.25640512531295   -3.63054668720994
C           6.27719919865386   -3.45943092676369   -3.00203369150204
C           4.05471474127950   -5.30551213150891   -5.34004321373712
C           3.91370208024962   -6.43429126550653   -4.56812070148787
C           4.53020053271646   -6.58902882099013   -3.31118303517770
C           6.29555952947498   -6.26767959984851   -0.56674821332836
C           7.47717904942450   -6.81611930064077   -0.15449182961540
O           7.28884901611642   -7.64690236028778    0.88356091982163
C           5.98641274435261   -7.62079336088190    1.17994588259202
C           5.30508116511644   -6.80062999849971    0.32148202994313
C           3.86722099563557   -6.45898812133697    0.35921653923291
O           3.11833540283514   -6.56133913241296   -0.59066762893297
C           3.41911777977530   -5.93889475551341    1.64892104712433
C           2.13157755802102   -5.62457608856947    2.01639799175259
C           2.03864023908871   -5.08402791268242    3.30070958203162
C           3.26066919114733   -4.97431982904736    3.92665460988906
S           4.54391959692244   -5.54387533815588    2.90790067867934
C           3.56002051056441   -4.41210105484411    5.21077579053811
S           4.93216346933414   -3.36944588145633    5.38215872739412
C           4.57710450538994   -3.03546920903719    7.01161231898036
C           3.45258841260717   -3.70241431383164    7.44249611670204
C           2.86655852922430   -4.51842988837441    6.41264345488527
C           1.76376026550348   -5.35175890939157    6.75521744821739
C           1.24081272036178   -6.32014588813028    5.87015160462546
N           0.79868197432611   -7.15712222802009    5.22249806235632
C           1.22711300522488   -5.28875928978072    8.02530220537443
C           1.75588739509777   -4.43724304652063    9.00518776152254
C           2.86362586749431   -3.66538871883132    8.73983538288248
C           3.43409963196511   -2.84495322324349    9.73636672245683
N           3.90000938623065   -2.17870110080542   10.54521932007181
H          13.34746692495051    2.56377979725219   -3.33412813769330
H          11.42538791421759   -1.50997376750165    0.30864925762478
H           8.94745466287890   -2.65185097020791   -2.11138312053744
H           6.32875992623210   -4.06138603467387    0.97440119915186
H           9.54248612409767   -1.81071374320748    2.05630959414920
H           4.67805088603453   -2.78268025026479   -6.48519571705388
H           6.07577427126421   -1.10719954339692   -5.38797268807564
H           7.07683658928289   -1.46879398455398   -3.18388300528871
H           3.55824456729971   -5.23552137261126   -6.29746348994296
H           3.29884924794839   -7.24430647579943   -4.93372434147169
H           4.36853195615245   -7.49083005351523   -2.74173898577352
H           8.47501222135722   -6.69874886374447   -0.52757828010321
H           5.64283945274967   -8.24840141902857    1.97875155190065
H           1.29439446667284   -5.78556654690921    1.36166976876112
H           1.11673065653569   -4.75357138256009    3.74325155646688
H           5.19585019067673   -2.37016635195492    7.58082145742770
H           0.39088189586161   -5.92502664068107    8.27472351107508
H           1.30393428117485   -4.40938483615252    9.98510984335169
