77
 SCF done       -157.648777227374          0.000545686381
C           0.30337812274847    0.28694383701622    0.01474888003281
C          -0.96631540878197    0.77428444909627   -0.01571055300697
S          -2.12503095596333   -0.48965453861682    0.17685819338681
C          -0.87334633809899   -1.70505076678750    0.29963595923104
Cl         -1.25352936207339   -3.34126222501755    0.51907771572151
C           0.35912710802996   -1.13433055798347    0.19564112873097
C           1.75886903928729   -1.57715870696898    0.21549658587062
O           2.19854326879008   -2.69566239034210    0.34668674800047
C           2.54957046708101   -0.32414078540043    0.03003304508149
C           1.65234244584752    0.80996588338134   -0.08644265035055
C           1.97120393327529    2.13132086420694   -0.25733288675528
C           0.97240506650256    3.12254637514454   -0.35642923650231
N           0.17183664570940    3.93992083406421   -0.43977008291101
C           3.27951006410122    2.64534590477425   -0.34911688624097
N           4.32617085498133    3.11010439893396   -0.42767196654798
C           3.91237760262876   -0.32737699724318   -0.02612627935957
C           4.66039257070181   -1.47869498712093    0.09115007949878
C           5.37350990541076   -2.46787010296824    0.18107631914783
C           6.10278571598252   -3.58190569379344    0.27405554107654
C           6.74971252302481   -4.61523621604642    0.34960248854139
C           7.49140792834601   -5.77811404787789    0.40742183430811
N           6.99295331566718   -6.96793679903339    0.88179126081299
C           5.64774382581273   -7.17579037419134    1.36000410139773
C           4.64140341927760   -7.23601493627462    0.21461531769268
C           7.94670999562114   -8.00011938281378    0.80173253847409
O           7.74274718089118   -9.14007247253388    1.16030832194334
C           9.11406049202885   -7.35224939375975    0.23845905232809
C           8.80730353866988   -5.99037425619745    0.01089152377157
C           9.97679997378078   -5.36206087316529   -0.56312335294620
O          10.20506352733344   -4.22795104485511   -0.91560811031089
N          10.92365647691095   -6.41407842045667   -0.66366514791775
C          12.26586536675172   -6.10970568486019   -1.10017235695047
C          13.27232786535069   -6.17731007233971    0.04496706748005
C          10.41695973628792   -7.60060431170391   -0.18833120209887
C          11.00150772417431   -8.89477192789333   -0.12842881083018
C          12.14554462645605   -9.34241058441000   -0.69871303256872
C          12.62232597110495  -10.67893069883630   -0.57979172407513
S          14.02561423635161  -11.15849222004422   -1.47639719910177
C          13.99120619960260  -12.74950142925877   -0.79597985812094
C          14.95323071914437  -13.70998389447601   -1.26767652136420
O          15.09911211946312  -14.84308950441106   -0.86174502700429
C          12.91804169777344  -12.89208416920295    0.09099316734243
C          12.13943573674645  -11.72944828403584    0.17576604089188
C          12.57714343317944  -14.09596732932020    0.81464126186356
C          13.39520801711211  -14.94598497946980    1.46013934667238
C          12.89014432478389  -16.31047389553015    1.83905461081743
O          11.73650065205677  -16.65320403762218    1.90234160485499
C          14.11126492532788  -17.09488245930108    2.04078122111313
C          14.43599794632131  -18.39958167634847    2.26851899877999
S          16.17034789519605  -18.58946080439553    2.36680945629944
C          16.43762293932263  -16.90551737262754    2.10962921103621
C          15.26180742553485  -16.24161134557674    1.95057126570018
C          14.82730526793626  -14.87904463872119    1.73258393028804
C          15.58906703642861  -13.76494990343176    1.94207861165384
C          16.96450402112119  -13.86162963119959    2.24408000627427
N          18.08525465985646  -13.92178550949029    2.47974154918215
C          15.10355827484792  -12.44328915175319    1.92518506418703
N          14.75481335664074  -11.34982752735301    1.96064739523649
Cl         13.39226104048166  -19.72069169705997    2.44633718474900
H          -1.30514901496872    1.78404626825305   -0.13698522632072
H           4.46564523092623    0.59210955295464   -0.17509565050945
H           5.38507715585307   -6.36816453218542    2.05009387292863
H           5.65953055564251   -8.12607404024849    1.90059083244482
H           4.62052885757717   -6.29359892156486   -0.32824243519845
H           3.64866401852583   -7.42758666775476    0.61112547603831
H           4.90253904355392   -8.03621435628205   -0.47410165625275
H          12.21777582762740   -5.08553435845046   -1.48389246605430
H          12.55170825097786   -6.76791920581010   -1.92494127060438
H          13.00119711971895   -5.46154776702712    0.81722431660083
H          14.26301040465218   -5.92777898071953   -0.32447832509807
H          13.30466383661458   -7.16913685247996    0.48957388771983
H          10.38640089597494   -9.59328266546020    0.42358623181689
H          12.76152560951905   -8.69543924391540   -1.30293644158540
H          15.59444117276995  -13.31089041009333   -2.07650678195415
H          11.27512978890172  -11.65457321770225    0.81023957965114
H          11.52414574553092  -14.36111802598714    0.80960290572359
H          17.44020934178462  -16.52762841164247    2.07691240659319
