87
 SCF done       -176.480388988625          0.000753101448
C           2.24864948980756    1.39788478828882   -3.11214563327056
C           1.60604198216134    2.10855581046089   -4.07841943791904
S           0.50356865853174    3.24260544455000   -3.38857074626833
C           0.92257431731211    2.76035376477834   -1.76087392915270
Cl          0.19468616546906    3.47282362712535   -0.41141402699515
C           1.85713687811155    1.76933521185141   -1.78484441778938
C           2.59812480109635    0.97473512276538   -0.80322238738339
O           2.66455513347996    1.14017952576358    0.39073651029759
C           3.40431148094881    0.01345892466678   -1.63043638257111
C           3.23399208693853    0.33835846613127   -3.03658157501111
C           3.83000036721661   -0.25425265045477   -4.11921799975008
C           3.53548277827540    0.15632748387318   -5.43649593306154
N           3.31406087576346    0.48016226968565   -6.51463852033154
C           4.77820620951669   -1.29401765503069   -4.06485526211666
N           5.55591934358565   -2.13889298702865   -4.08214230946122
C           4.23721173718210   -0.92836057075233   -1.11083366043511
C           4.17426470171994   -1.38273209166358    0.23225318684264
O           5.27774934545410   -1.92465321677410    0.81363968354751
C           3.12090266868878   -1.48949623891637    1.12181105653441
C           1.66356429761381   -1.31648355013208    1.26228783666959
O           0.83317994828515   -0.94956047411884    0.47438491997058
N           1.41245702095146   -1.75850018490832    2.55275973437916
C           2.51976811678142   -2.25180157121654    3.25018200384765
O           2.48596477947927   -2.69917656972759    4.36196459231589
C           3.62448896396121   -2.09031471387339    2.29286978553394
C           4.97320035353833   -2.33939198696234    2.07410487693161
C           5.96527358635186   -2.90209396662916    2.91170856462168
C           7.23277516235221   -3.13899907702881    2.47562154174349
C           8.25160177476136   -3.67130325075876    3.29897966641982
N           9.52633448903920   -3.95409082067040    2.85896519010799
C          10.04907979536437   -3.73762027328922    1.53175189195273
C          10.41742674746916   -2.27461993627637    1.29619489469638
C          10.34415550941664   -4.45396465789603    3.89051153866206
O          11.50519694873820   -4.77369807569784    3.73925649212620
C           9.47380092408923   -4.47660814267502    5.04380152949496
C           8.20394891172484   -3.99980431882959    4.65394195727125
C           7.35740342280891   -4.01535433338694    5.82664261755267
O           6.19849141723672   -3.70200856086528    5.99503783948318
N           8.18875412119070   -4.49530469498275    6.86301797398712
C           7.62902974435845   -4.69620271602779    8.17805254761894
C           7.36711948104154   -6.17179512526534    8.46882274434182
C           9.45670951850941   -4.77604455657290    6.40759635088950
C          10.60662211899839   -5.23855734917426    7.09193317046880
C          10.79102253602195   -5.48756222478018    8.41470810464598
C          12.02096508112453   -5.91649023684374    8.97549499427084
C          13.22625162375905   -6.19899367994274    8.35755422847779
C          14.20025107325727   -6.58042794712149    9.27677170311133
C          13.76153397560146   -6.59380909062753   10.61143040388647
S          12.10604372501747   -6.13312232579934   10.72031794960125
C          14.74115630970221   -6.96317757916901   11.53157869054345
C          15.93576407453993   -7.23774797543623   10.89789559091230
S          15.86063274063761   -7.04374126373299    9.15890886917830
C          17.14069691799386   -7.63308788907347   11.53292226944836
O          18.25254425860819   -7.90227194386707   10.80331918737426
C          17.43724860154674   -7.80839918979530   12.86833634079924
C          16.89953697979752   -7.74504222512919   14.22640284861081
O          15.80010763295745   -7.46004759587135   14.62971151882355
N          17.98161220590137   -8.10474707315485   15.02459359156042
C          19.16232174440498   -8.39691075379755   14.34048965923353
O          20.19737406536996   -8.72406369462068   14.85667033658821
C          18.80042447334957   -8.20238133022707   12.93189295284825
C          19.26832113618282   -8.25024220210845   11.63911548713735
C          20.56442549788279   -8.59043227280695   11.12444193281782
C          20.86788267890012   -8.59413295180382    9.82778916471919
H           1.70056299975367    2.04899806126858   -5.14456632779673
H           4.99445516839759   -1.39527233301713   -1.72703314636253
H           0.48575543892815   -1.75167254318028    2.95523148294617
H           5.66390853368058   -3.13074608143634    3.92484176056985
H           7.47853762821149   -2.91129082185719    1.44788795276814
H           9.32267750808467   -4.08163479355460    0.79047640009990
H          10.94812274595369   -4.35615650099464    1.45798419523214
H           9.54839391367606   -1.62915325050785    1.40301730536843
H          10.82203279084445   -2.15439778831824    0.29508749980768
H          11.17057413365322   -1.96237996603878    2.01555231267437
H           6.67816714440046   -4.15415024023791    8.17696649383742
H           8.28051136643063   -4.24608375669238    8.93136317203761
H           6.64077960829339   -6.56247550435417    7.76052569279992
H           6.96613835713130   -6.28278233860542    9.47247583033507
H           8.27862144741102   -6.75958149483273    8.38693866190832
H          11.44447475056391   -5.37636163561345    6.42121750228667
H           9.99311348441183   -5.35454214917877    9.12805083086620
H          13.38759669415249   -6.13131078778221    7.29816612398240
H          14.61075829476644   -7.02999817416247   12.59664116136468
H          17.91755316044669   -8.15091623946833   16.03178301448904
H          21.28735765041758   -8.84991292499543   11.88430602184954
H          20.13596083769365   -8.33585654174906    9.08101844819127
H          21.85101283479294   -8.85845687147741    9.48189330940181
