64
 SCF done       -137.406977995851          0.000657277345
C           2.02619291946386   -5.85534389059419   -4.07740719158833
C           1.31689521594323   -6.59529022447013   -4.97002629122063
S           1.69133274365446   -8.27574759467319   -4.82618635433936
C           2.82991170577327   -7.97675531819440   -3.53337765335354
Cl          3.68505816769172   -9.24264378659340   -2.79958599471619
C           2.89220643113453   -6.64490523421245   -3.25375756511194
C           3.60960297019666   -5.77105737752366   -2.32468819551312
O           4.42777412343190   -6.10543727125375   -1.48351021953973
C           3.13546791360649   -4.40963538462005   -2.62058373295382
C           2.16891896831275   -4.46005369018773   -3.70272496905470
C           1.49323458787499   -3.42865079288182   -4.30305414007306
C           0.58255092917827   -3.66594435905680   -5.35363039592196
N          -0.16191517661788   -3.83794140891708   -6.20979485776096
C           1.60455044374421   -2.06214048437432   -3.98334038026529
N           1.64746472543829   -0.93279303171704   -3.77670394985734
C           3.53428909918454   -3.26431183243977   -1.97331197203457
C           4.44238315967531   -3.08921810054507   -0.92392893325773
C           4.73541202883608   -1.83973528381677   -0.36588121802831
C           5.65150167940104   -1.87720124397152    0.66307285219305
C           6.09656139902514   -3.16838138766070    0.93194548660648
S           5.35885716063118   -4.33701007606902   -0.11858544038660
C           7.02076080117225   -3.58343675513609    1.91077038843982
S           7.80965631401209   -2.47661901899147    3.00993432565604
C           8.70819889724958   -3.72712732822820    3.81866025433806
C           8.41015297755236   -4.96555754541880    3.25307943237842
C           7.45781259328286   -4.86993680439053    2.19082168497949
N           7.20808411676497   -6.11414128500351    1.71199991229623
C           7.96527616109717   -7.00682785961989    2.43781800158463
C           7.95770976588767   -8.38997482958398    2.20532325861877
N           7.99568144057013   -9.52472833778740    2.04273398768692
C           8.71555068949426   -6.34418314347385    3.38462775799902
C           9.53258154375894   -3.42721334676573    4.95345412663638
C          10.37796530971809   -4.38794667005791    5.50783307563332
C          11.04654992507246   -4.12712052567846    6.70095588858636
C          10.91593770271234   -2.84166604604684    7.24347613397989
N          10.18662723753307   -1.90063281999434    6.68021841714345
C           9.50453394353630   -2.17524766117599    5.59218883981353
C          11.83878276214242   -5.15187137342242    7.34361610345758
C          11.55460210275509   -6.47098250592417    7.37513005001130
C          12.63223923023575   -7.45585466208924    7.73127381578055
O          13.66883788517982   -7.21018456638607    8.29437435746108
C          12.15162488964130   -8.72615683257969    7.17515472677337
C          12.63010161220960   -9.99273000557350    7.01064574003969
S          11.44612986457356  -10.99578316586807    6.20476477390940
C          10.31293765965170   -9.69903994821373    6.11125279521310
C          10.82154437853890   -8.56342479840630    6.66152008221591
C          10.37810563244308   -7.20904146961825    6.92419780729239
C           9.07196543957286   -6.80427011736409    6.92986754072000
C           8.03592917732993   -7.64396084886881    6.46800210544937
N           7.18877175646016   -8.29824244373994    6.05598082050718
C           8.61262200376080   -5.56218591328418    7.41344531539200
N           8.17123563704801   -4.59267659727499    7.83950769002840
Cl         14.13630313434179  -10.60866138535050    7.47791992547093
H           0.60075457161736   -6.27921341613026   -5.70220272572125
H           3.08609670107361   -2.33621778102170   -2.30790259364758
H           4.26976156380830   -0.93945214329016   -0.72682717685966
H           5.99489026521330   -1.01678863346710    1.20979856243554
H           6.56581357939473   -6.35587553691636    0.97398637321813
H           9.38602250412810   -6.82639792509078    4.06629672990548
H          10.53899646676543   -5.32597791327053    5.00159687619984
H          11.40507406142370   -2.57643957664322    8.16987337808712
H           8.90359786642613   -1.36936308195028    5.19137740617224
H          12.77114475861162   -4.84718928854887    7.80568149744543
H           9.36098388060225   -9.86300031865088    5.64521365353004
