67
 SCF done       -149.510947141274          0.000969577630
C           0.89813149314281    0.05709254096882    5.55438614635617
C          -0.16838686598520    0.62966224704761    6.17816893904752
S          -1.02064737643057   -0.52133621537509    7.13774732989100
C           0.08267716140327   -1.80469821968080    6.69726643499020
Cl         -0.10970378776225   -3.37781907206863    7.29090463405595
C           1.04142658792953   -1.33732522863598    5.84862066621692
C           2.21628438205255   -1.88422823985798    5.15798750663561
O           2.69288653698114   -2.98393036904848    5.26795425187457
C           2.76190987861987   -0.71961077638487    4.37498703480008
C           1.95528763893813    0.46420135989941    4.65327053301479
C           2.10317731193289    1.72576650327478    4.14388881725904
C           1.21535958802294    2.76687105815520    4.49337877855324
N           0.50696442292239    3.62585617162015    4.76824366897110
C           3.10447234651784    2.14448472867781    3.24432242577010
N           3.89118523108634    2.54874494444942    2.51274325731316
C           3.88733914403401   -0.74714589285324    3.62112551317231
C           4.59110195803650   -1.91695272995131    3.21252714525259
S           6.31448826884686   -1.84881858998894    2.83584247839720
C           6.14915632445677   -3.54241295979128    2.40933566008252
N           4.92243191065086   -3.97318653308660    2.54707132689944
N           4.08334508072286   -3.09220753499311    2.98252184722989
C           7.24660441342143   -4.32965334735597    1.96029617600872
C           7.10090417821458   -5.61434977761881    1.57326977428604
C           8.20429195670771   -6.40552395483300    1.13704851884822
N           8.04407174067503   -7.68571407195104    0.83960100546975
N           9.01833309927295   -8.47286328621740    0.62769784552854
C          10.23319428948023   -7.98901453845349    1.01756783748344
N          10.39786487170213   -6.68406688243060    0.95177050806037
N           9.42713079979451   -5.86652747241605    0.85124732887263
C          11.32464910499832   -8.88472576653751    1.32603871242806
C          12.60272201818340   -8.39538118339414    1.57087755402669
C          13.63739488122146   -9.26688548334249    1.87384087046450
N          14.93243071958368   -8.67132287140338    2.08648884334539
O          14.96107959117599   -7.49830407907233    2.38153072139913
O          15.92131944137471   -9.36865516590591    1.96390219815947
C          13.43116947935209  -10.65896554102091    1.94711628786958
C          12.13019997989442  -11.12042041569899    1.70545517327797
C          11.09938532511785  -10.26393258046008    1.39816228572167
C          14.48894681302222  -11.58737737283695    2.28681883138843
C          14.54935581616222  -12.85403183811469    1.84172656716675
C          15.59827492835397  -13.76706360165402    2.19391968907140
C          16.91917685653732  -13.52141006672139    2.33317822288334
C          17.76963872590675  -14.53002280919795    3.05319258665497
O          17.44324770768813  -15.65335578052076    3.34897553341558
C          19.01411045619719  -13.81475663799126    3.34216824953117
C          20.16881366050492  -14.05070932336175    4.02907134825043
S          21.23128204652325  -12.66805931282750    3.93218629068193
C          20.10966512770840  -11.79156328331390    2.95532985914725
C          18.98481236110797  -12.51944388018972    2.72601803904572
C          17.74638688832039  -12.37096619973921    1.98315113342367
C          17.54443423761333  -11.44785937461368    0.99810904661090
C          18.51165705811615  -10.45870823848779    0.71261899967810
N          19.29637512441089   -9.66175677882903    0.46113215172249
C          16.43549535409016  -11.41125508281776    0.13031419602795
N          15.57711016862938  -11.36283772381365   -0.62942227180542
Cl         20.60741986274182  -15.44444558605337    4.88581609968947
H          -0.51189918386613    1.64456686940116    6.14524269801711
H           4.31675072295130    0.18285964412553    3.27090520948654
H           8.21894378750055   -3.85905863754039    1.92890562673691
H           6.13384934814880   -6.09302335873269    1.59848894382231
H          12.80101581664938   -7.33538186836245    1.51142392048426
H          11.93145248355591  -12.17702326968105    1.78833324063959
H          10.10532574340711  -10.63950670278571    1.21089196077303
H          15.28348094635529  -11.22639520212195    2.92537220407718
H          13.76344697381662  -13.25423144047323    1.21513389768306
H          15.29097278313367  -14.78461596481641    2.42022021926440
H          20.35508425833513  -10.80042795212724    2.62946146939571
