88
 SCF done       -176.231952031340          0.000521118200
C           0.20177875469258    0.65802992224022   -0.08272903272916
C          -1.04829993172347    1.19526556201640   -0.09175808583253
S          -2.25678313943729   -0.03522411192831   -0.03672654299123
C          -1.05572430994074   -1.30464840757656   -0.00328399004786
Cl         -1.49835975588722   -2.93794900875434    0.06144312832959
C           0.19966275230585   -0.77369124311087   -0.03058846127947
C           1.57566042751705   -1.27854214860150   -0.02024110824440
O           1.94298258128684   -2.43101723188333   -0.00777793296337
C           2.42936744061107   -0.04917615527721   -0.09345568936325
C           1.57110721486386    1.12899334237392   -0.10927899810921
C           1.94536436071392    2.44541237806588   -0.10439763129988
C           0.98587104688433    3.48037228468525   -0.10205378426613
N           0.21716812036864    4.33175474703330   -0.10303543534027
C           3.27165456753412    2.92123490449508   -0.08684042939233
N           4.32902186698832    3.36784812474682   -0.06718488660320
C           3.77420808560952   -0.06308257945020   -0.27046514629798
C           4.60292037333385   -1.23403118267646   -0.20732712805631
C           5.62014885532990   -1.47565683294862   -1.15013445695268
N           6.35988325324967   -2.55118743980531   -1.12916713688527
C           6.12096979533271   -3.46451659954099   -0.18456379196658
N           5.23157399053395   -3.29687999919598    0.79788586114340
C           4.50908276404128   -2.20628588615302    0.80270382728385
C           6.90930335014841   -4.66684911522172   -0.25536265505981
N           6.82416578335397   -5.73300975571749    0.60177945570908
C           5.90135294346699   -5.92034396735286    1.69673130740384
C           4.51492406198764   -6.32339595499900    1.20461843885740
C           7.73832804912402   -6.74295961127200    0.25930844536075
O           7.84835192672030   -7.78830340333927    0.87179808753544
C           8.43335821024731   -6.22577239085846   -0.89713221019130
C           7.89720045235761   -4.94438050618361   -1.19065078915959
C           8.59983217256467   -4.41863798835514   -2.34766747503113
O           8.52064188957613   -3.39190721976317   -2.97595725228102
N           9.53271891530864   -5.43943038471363   -2.66643728543077
C          10.39665777738387   -5.31405784351306   -3.81434715207398
C           9.87045512260067   -6.10449255955682   -5.01039079700349
C           9.43740868532134   -6.51241029000282   -1.81890160242417
C          10.26202559291979   -7.66912582230157   -1.91435059777741
C          10.12269403729245   -8.72343534518688   -1.07932404346414
C          10.90512542442569   -9.93292420965322   -1.09825962275183
C          10.57667162963527  -10.95362803105482   -0.20324772436716
C          11.29063601885017  -12.13935006523291   -0.16836991867224
N          10.87643426940916  -13.10739142611794    0.81406091001827
O           9.73108829675759  -13.05177335159440    1.20011861116893
O          11.68898627152305  -13.92533338240468    1.20454390464367
C          12.37953000402432  -12.36979314259524   -1.03314991303492
C          12.69027329702827  -11.33946025847393   -1.93077936581092
C          11.98649910023369  -10.15962117003749   -1.96375258994086
C          13.12547827087125  -13.60706799647246   -1.03106484227157
C          14.40920706863355  -13.72777339126609   -1.41578836537830
C          15.12050768908612  -14.97104359718896   -1.39715342479975
C          15.04223219501531  -15.97288921711969   -0.49199424912347
C          15.59051065057409  -17.32154390029044   -0.85996376701660
O          16.28985528912401  -17.57052763755193   -1.81180869239992
C          15.03840339937921  -18.22676926902140    0.15063209147266
C          15.02313479648201  -19.56874798091063    0.39319159782245
S          14.11384875968170  -19.91831451733773    1.84285363020931
C          13.77548681747042  -18.24670925242409    2.11220314238503
C          14.32431435471617  -17.47201523536107    1.13970382948570
C          14.42940480923183  -16.05741620579918    0.82943374793751
C          14.20162216498833  -15.05514251076407    1.72829003623029
C          13.71142234273103  -15.33029528879911    3.02403304450288
N          13.33423781040965  -15.54605053481442    4.08491449281835
C          14.48655870699867  -13.69184298128977    1.51915458340154
N          14.73750262048072  -12.57666028297937    1.41705003323049
Cl         15.74557644901430  -20.80253309103127   -0.51553641916598
H          -1.34663813899406    2.22413545418629   -0.12942573385441
H           4.28529066664128    0.85954064823358   -0.51728553822022
H           5.81088370022489   -0.78289664276794   -1.95922759862187
H           3.85848662961825   -2.06986916600906    1.65550622725659
H           5.84130144903233   -4.99839916206211    2.27636244857843
H           6.32533827783699   -6.72134070128246    2.30901181435325
H           4.06942250756792   -5.52103594258323    0.62266922343144
H           3.87376158194135   -6.53085903579144    2.05631302502356
H           4.57912242721951   -7.21849771449778    0.59027199553963
H          11.40976015721052   -5.63055156642868   -3.55026660629739
H          10.41512566752872   -4.24875411569028   -4.06106982858755
H           9.79387491658246   -7.16454149612066   -4.77744008718326
H          10.53767506264156   -5.97831256986675   -5.85856114148155
H           8.88436334212158   -5.74057195603362   -5.28744448110941
H          11.01224639223390   -7.67120408789432   -2.69136202995407
H           9.35290909634676   -8.68149479526684   -0.31971255760608
H           9.75648389919570  -10.82102743333350    0.48785211755077
H          13.49501166699765  -11.49135809459971   -2.63268676217814
H          12.27781849696117   -9.40033132489552   -2.67225063958618
H          12.61536693376695  -14.49250625577624   -0.67704214978954
H          14.95244147686869  -12.87567506850625   -1.80150430928338
H          15.78126493791012  -15.16072347087069   -2.23870734702431
H          13.18784226124993  -17.95691785511918    2.96036817537810
