98
 SCF done       -194.251752234781          0.000845693582
C           0.30562144189563    1.71142188702505   -3.67987579147959
C          -0.88010145130147    2.37273569801910   -3.76788988730049
S          -2.20580872973028    1.26951150967286   -3.82942784741014
C          -1.14184694585759   -0.11539635026705   -3.73641115850055
Cl         -1.74733396891629   -1.69642641634313   -3.73970010839896
C           0.15743692776085    0.28777644338924   -3.66040120765443
C           1.47315589456093   -0.35588293801971   -3.56433740019778
O           1.71093608290591   -1.54028490875158   -3.57130076391840
C           2.44787084576049    0.78051836762136   -3.54126979767804
C           1.71450370733651    2.03688168873451   -3.59279774140388
C           2.21188032993829    3.31202434753360   -3.51849896164444
C           1.35784608517918    4.43429072352675   -3.56588127431503
N           0.68020050971746    5.35908178109287   -3.60833239210862
C           3.56726172785046    3.66974931841515   -3.37708259761916
N           4.64911381835756    4.03493337813920   -3.25412367657613
C           3.80599948127604    0.67844081268400   -3.62770579747589
C           4.63108436044855   -0.46514212349172   -3.48196461766127
C           4.41114926578682   -1.65405844636684   -2.81943073200850
C           5.57363126647995   -2.47279284420358   -2.93828236948649
C           6.55727078360292   -1.69312572193663   -3.70732698730814
C           5.99677578750708   -0.49147312399141   -3.99889847128715
C           7.87673590994831   -2.06067446294389   -4.00368964406702
N           8.97459911605893   -2.30451044449953   -4.23448287408085
C           5.74635632168533   -3.74652435205523   -2.44560531074898
C           6.81600150252184   -4.63715435515976   -2.72344384341917
C           6.64018339237757   -5.80406104244410   -2.00333156449505
C           5.41226458520747   -5.66260321259527   -1.22794344849862
C           4.85737294418301   -4.45473397111061   -1.50556790888388
C           3.68116945466873   -3.96634223062433   -0.92245517908377
N           2.72855035423899   -3.59888233175409   -0.39731073937509
C           7.52986972894901   -6.90642910054650   -2.08458812603497
N           7.67571094724357   -7.94486931018292   -1.19622147739397
C           7.04351235770494   -8.11719584046327    0.09163786357919
C           7.44385695969720   -7.02859477620012    1.08174647614936
C           8.68783896389758   -8.83781219960623   -1.59781420527418
O           9.01000833693750   -9.81740383294442   -0.95614234058270
C           9.16336624208544   -8.30751666336091   -2.85511797479955
C           8.44361117972083   -7.12216523447954   -3.12197103599946
C           8.87336839515614   -6.61990944976240   -4.41244038781396
O           8.53276785758670   -5.67142517941639   -5.08147142897188
N           9.86846568112648   -7.53572697252145   -4.82178332603077
C          10.53750059587139   -7.37666733111080   -6.09028582954941
C           9.94849690261357   -8.29235736585436   -7.16068341952564
C          10.04710811504117   -8.54393252486042   -3.91262913624014
C          10.99122446795956   -9.59251351129526   -4.07477597204951
C          11.16725943581516  -10.56312415517258   -3.14777379191234
C          12.12086054870796  -11.63868819852902   -3.23093011779761
C          12.34291822327056  -12.42810504977349   -2.10032026775031
C          13.28016773551116  -13.44673234317280   -2.10735200998652
N          13.46847279330631  -14.14846159304156   -0.86306666298912
O          12.53682730910841  -14.17015664782012   -0.09176492932271
O          14.54591626771403  -14.67210539239554   -0.64901246654733
C          14.02824322856638  -13.75376520307602   -3.26216061399537
C          13.76394205547119  -12.97774269241786   -4.39904034957252
C          12.85485235490668  -11.94796591271894   -4.38692589440302
C          14.99960705322524  -14.82189431003849   -3.29339122749945
C          16.04889709366185  -14.88127923861910   -4.13360982056959
C          17.01426674019570  -15.94009694974559   -4.10356338326681
C          17.53283683229525  -16.56584593676228   -3.02326415456177
C          18.25501782721188  -17.86867382621033   -3.21999910081216
O          18.61008973702665  -18.33209861584522   -4.27618172955662
C          18.36107937649334  -18.43223392536164   -1.87268284240770
C          18.79087669121439  -19.59481673636198   -1.30319999005614
S          18.58474686077099  -19.53950634904358    0.43020926987598
C          17.93126461114386  -17.94301170967461    0.36773418231602
C          17.87137936065200  -17.48678929054340   -0.91131280719205
C          17.47570648041761  -16.26906244578687   -1.59528540555815
C          17.31727779154406  -15.06102988092907   -0.97883581926157
C          17.41338160124089  -14.93559652133807    0.42494176755728
N          17.51095595973693  -14.81781997771376    1.56110109472244
C          17.11936366792412  -13.82637815689422   -1.62631249986465
N          16.99429234991786  -12.78701931704735   -2.09670327498193
Cl         19.44440618698767  -20.95505455776356   -2.07238213878024
H          -1.07168022828677    3.42669322902316   -3.80509633324157
H           4.35363306730935    1.58600843742421   -3.85779818663746
H           3.51756250068199   -1.94350119312579   -2.30515527193176
H           6.45948630656632    0.31895691749540   -4.53182575844542
H           7.61812190825966   -4.43335155393385   -3.40415633969701
H           4.98553682574151   -6.39975996102396   -0.57577846711129
H           7.38921723584588   -9.09001743735712    0.45457654106923
H           5.95830037443513   -8.16581088185763   -0.02808248790091
H           8.52288177682185   -7.02579328878635    1.21633642330205
H           6.97530314829652   -7.22002628027165    2.04302390603539
H           7.13578166102197   -6.04453290790522    0.73495648568849
H          11.60860467307684   -7.55664525179266   -5.96468010680937
H          10.38837033986374   -6.33295589736402   -6.38054550734208
H          10.03374119923067   -9.33863821188572   -6.87424104010555
H          10.47128435282435   -8.14158986269871   -8.10095544657611
H           8.89688590632692   -8.05989619432749   -7.30817950971072
H          11.59204443878292   -9.57267365445578   -4.97193985393103
H          10.56593888970340  -10.53879769093445   -2.24826772340014
H          11.79675933018968  -12.23167997317833   -1.18875798040293
H          14.28126321450000  -13.21067626078713   -5.31609844773894
H          12.69583235086051  -11.38398165512091   -5.29245340811544
H          14.88968245286066  -15.61385653342866   -2.56532008478896
H          16.18925161073057  -14.13222902224157   -4.90110955450905
H          17.35314319529136  -16.31617285397101   -5.06495466502320
H          17.62785976247562  -17.46041446990899    1.27531821585585
