89
 SCF done       -179.470499258791          0.000419330348
C          13.93451690007274   -2.19107747422381   -0.59968992837773
C          15.27232756224978   -2.41178278679202   -0.50321103676894
S          15.77750764646659   -3.66360477622562   -1.58016438187889
C          14.15222889299465   -3.89414317983014   -2.18122023375638
Cl         13.80453485279421   -5.04804704913717   -3.37026232304123
C          13.28997143905023   -3.03900853271710   -1.56104963491386
C          11.85879890739159   -2.73361750533229   -1.60644394337404
O          11.00594862668393   -3.22201413257174   -2.32106381814784
C          11.65762716365169   -1.70105343983468   -0.56790461997203
C          12.94510695827817   -1.30501346401679   -0.01909936435971
C          13.20956690974582   -0.26692186237076    0.83245382074486
C          14.50831461433954   -0.04952746562682    1.33802137844513
N          15.55237103843528    0.12854483482634    1.77933666402745
C          12.29043594613320    0.72300835495530    1.24099433737493
N          11.62713449102675    1.60633673696624    1.55327257200286
C          10.45894373096689   -1.30303641616426   -0.05012007929219
C           9.14486838975529   -1.63049840822397   -0.43762758010580
S           8.70540641025025   -2.42363725726790   -1.91727914963193
C           7.03697520662725   -2.18543390713871   -1.53154583946310
N           6.05262162387576   -2.65161159726423   -2.42977238220513
O           4.88885969067083   -2.46241241603872   -2.13525208548260
O           6.44370123021172   -3.20606639748775   -3.43678395028790
C           6.80906313151399   -1.57114901503590   -0.32719233661738
C           8.00922823759664   -1.25130209746146    0.32763366473384
C           8.12976897456446   -0.67786751001468    1.62680617529271
C           7.15074439862630   -0.11572555725428    2.37632405380608
C           7.46794115513669    0.42722181225360    3.65041426105579
N           6.56433961150787    1.06328264679610    4.46479350876524
C           5.17795572458150    1.33221624852895    4.16926786440390
C           5.01983580087219    2.52384823215366    3.22787611586109
C           7.15816422373667    1.52812802217492    5.65440913339780
O           6.54205849994289    2.11096489236473    6.52170428545107
C           8.54315910220980    1.12529751780381    5.54047665947975
C           8.70118911500462    0.44386629854812    4.30536531426323
C          10.08516619830887    0.03248593628951    4.20743512983087
O          10.69161350010507   -0.60712638474323    3.36229369432672
N          10.68087849285077    0.52219268242526    5.37388441486304
C          12.08129262926658    0.30720975281859    5.64818242938789
C          12.29955406980310   -0.85473584217069    6.61369790141545
C           9.77533612310540    1.16580317723052    6.18583009889902
C          10.12059905281486    1.73857994094756    7.44069720682202
C           9.22820630079201    2.34363881562898    8.25176618183545
C           9.61440387989315    2.90526174529754    9.52810235135809
N          10.88625554979212    2.78251183076614    9.92707421240365
C          11.20403139932951    3.31583668140059   11.08987170114764
C          10.28278080498416    3.97259836703808   11.89266058870385
C           8.97343513394611    4.04491077067454   11.40287456779422
N           8.65891944281839    3.50877478911384   10.22550436822083
C           7.87783357860945    4.72070138078607   12.06945864604114
C           7.90175172148409    5.25856443095863   13.30044569418144
C           6.77930308193246    5.91467484078771   13.90054688198344
C           5.81260999467898    6.65945042535714   13.31394012448579
C           4.55216889144386    6.93140402093996   14.08406735338451
O           4.38371534653246    6.74543947147828   15.26401821568524
C           3.60344252768241    7.40768318585290   13.07355187919868
C           2.28269336973737    7.74150054451753   13.01719128111000
S           1.84378902143308    8.22810877305921   11.39716047331491
C           3.45104979987069    7.98565139916912   10.81827862951982
C           4.27090913996762    7.55026753053777   11.81217553251237
C           5.67389506900881    7.21641312601130   11.97455859806967
C           6.65575834987765    7.57704136943528   11.09330966362596
C           6.34516361946744    8.19560984904778    9.86277148534931
N           6.10472261862795    8.69368719021200    8.85808860385451
C           8.04040019195092    7.45528380611116   11.31979203957013
N           9.17874401959329    7.42124852936598   11.46145506186066
Cl          1.14539427786977    7.72305004903167   14.27178833996087
H          15.99641309168408   -1.93286823780915    0.12568639730626
H          10.52649375756125   -0.65767053482427    0.81628871562536
H           5.82251232772837   -1.38839196826694    0.05806019483200
H           9.11344320079998   -0.70206540263282    2.06738816146288
H           6.13372938748179   -0.04455402738038    2.02173483840652
H           4.70316454092834    1.55817576196450    5.12815364849212
H           4.71298474814285    0.43636505655915    3.74857193446834
H           5.44277719772283    3.41482313523074    3.68507580880408
H           3.96604730544637    2.70072663540509    3.03147452745217
H           5.52848547616473    2.34642925125359    2.28285519998884
H          12.51979928824896    1.22775519473792    6.04095242481722
H          12.54906618629989    0.08017325940173    4.68604276030982
H          11.81421034699781   -0.66346796440190    7.56799941985541
H          13.36333717180192   -0.99545630733425    6.78299480687730
H          11.89020159435021   -1.77010844847411    6.19289207359264
H          11.14986190829256    1.68507199347314    7.76541821669767
H           8.18464593956888    2.43949566381334    7.98900601553476
H          12.23961485279039    3.21058120930339   11.38893602875732
H          10.57113286818933    4.41317218342848   12.83098100927792
H           6.97180354548023    4.75148222813368   11.47827294066704
H           8.77068465484082    5.14026329261024   13.93359459389473
H           6.64888619660781    5.76038427696004   14.96817959967630
H           3.67281100948583    8.17118821370554    9.78611021214145
