82
 SCF done       -173.419893569383          0.000440863937
C           0.97164213304136    0.81960981344057   -0.48659801695951
C          -0.21706120558360    1.22146237709769   -1.01502351344413
S          -0.23879948966537    1.01942269190514   -2.72718836883581
C           1.39043423511540    0.38656546465662   -2.74007326258129
Cl          2.14324079360932   -0.08489852646005   -4.18074240585174
C           1.89349118671351    0.33842858663837   -1.47371131939403
C           3.15452634526163   -0.04890061465433   -0.83566564230179
O           4.19895155414935   -0.34938859977950   -1.35874503075740
C           2.90200819968707    0.13751331610929    0.63589989231798
C           1.58358315428385    0.73634675122566    0.82273391536529
C           0.99419912027500    1.12180043773580    1.99408428597610
C          -0.30734216677018    1.66919628634473    2.01703148923549
N          -1.36291888599495    2.11598444538795    2.05062045522534
C           1.57966256566238    1.02964611221695    3.27365147889069
N           1.99977799684553    0.97448749863331    4.33994715310396
C           3.81189584869389   -0.16081135032111    1.58502759499549
C           5.02338419756761   -0.90260586480334    1.31129292266275
N           4.95227272852001   -2.06462683325006    0.69642211353937
N           5.99153352896391   -2.79826339911354    0.42492411374738
C           7.22544886638119   -2.48295626874218    0.76976813634628
C           7.44669627622217   -1.24955622524987    1.45177198859372
C           6.29858867013899   -0.43155025778581    1.73394606204749
N           6.73612242731272    0.68321505498915    2.28670118836464
O           8.05827832478810    0.56583559833064    2.33252874137739
N           8.51039814827860   -0.57253504395106    1.83312492060621
C           8.31767814204261   -3.36999906673577    0.49293160985054
N           8.41012344239476   -4.20668695144907   -0.58406786042587
C           7.43390701200890   -4.38105909079210   -1.63383836012693
C           6.40054089970692   -5.43939212644817   -1.26252032623590
C           9.61610560851422   -4.93048866372810   -0.56984689665851
O           9.94206914340355   -5.71808040227111   -1.43635959183900
C          10.27977342406199   -4.50035167438498    0.64205698350575
C           9.45699780277443   -3.53183608914733    1.26902827187995
C          10.06024297263458   -3.18417271084667    2.54355719225081
O           9.69603979840160   -2.48585709645869    3.45966414746316
N          11.25478405349538   -3.93808776164438    2.56812166976203
C          12.19547765443967   -3.80338074165834    3.65404885623914
C          13.37089089561518   -2.90660149610597    3.27427946208714
C          11.39511707235898   -4.72083797610315    1.45131012083449
C          12.49155812076490   -5.59275041803360    1.23287524357715
C          12.62521145030381   -6.33683122361514    0.10713985830147
C          13.71329280668525   -7.21581556354427   -0.13082571753195
S          14.96620573347877   -7.50268142961232    1.03602623377659
C          15.79988432445494   -8.57289282156701   -0.03888383611700
C          16.97650487273101   -9.24072343334900    0.45474878316940
O          17.69884023244895   -9.98450004192020   -0.17263450963074
C          15.11981959055103   -8.70310390260558   -1.25448469465450
C          13.93259338138392   -7.95636294854249   -1.27530650906248
C          15.51306745517576   -9.54747137041523   -2.35876069603335
C          16.73585314937652   -9.74249226808462   -2.88413411935918
C          16.96322690758129  -10.92358414580121   -3.78716798125244
O          16.11163053924516  -11.57439209068900   -4.33832299839314
C          18.41670079951421  -11.10505607597926   -3.77335800996160
C          19.31580214094295  -12.01780898578134   -4.24068844149950
S          20.94066890545199  -11.56155428262308   -3.78840621717604
C          20.39021688873868  -10.13967196864153   -2.98311350031022
C          19.03672714250862  -10.02999396387522   -3.05271313031341
C          18.01802675734956   -9.10152357324505   -2.61251869131848
C          18.24571707003178   -7.81676514113467   -2.20912650340797
C          19.55646061547861   -7.32193699726675   -2.03681433415559
N          20.61383428565449   -6.90559652660802   -1.88346925015499
C          17.24355820202605   -6.85856411272111   -1.96422847455483
N          16.47168405382909   -6.02829976063019   -1.78263336423351
Cl         19.01021511075058  -13.42184735605333   -5.13586607783178
H          -1.07983072012662    1.62249244644720   -0.52104884800328
H           3.67578339263891    0.14646440829280    2.61368221720518
H           7.98816780482825   -4.69422525151777   -2.52294874703797
H           6.93907038205178   -3.42661614657849   -1.82217758387626
H           6.89249766136977   -6.38528389227692   -1.04890266412223
H           5.71362459294441   -5.58142125250343   -2.09138302731197
H           5.83706691404959   -5.11605738451900   -0.39182337569829
H          12.54223370341158   -4.79278826700390    3.96503076477878
H          11.63853193654569   -3.35002987623511    4.47880242263548
H          13.91890204251274   -3.31568320843070    2.42838414287132
H          14.04851325049197   -2.81263798351189    4.11809208366510
H          13.00968885634544   -1.91675689567852    3.00689098199508
H          13.24939164380126   -5.65894542322914    2.00190531920632
H          11.88036603572292   -6.27344881068008   -0.67660200130021
H          17.18590822699695   -9.00804529314946    1.51614748734297
H          13.26688919591546   -7.92416370655488   -2.11929634082925
H          14.71074420159611  -10.12800285899954   -2.80492892741515
H          21.09956786743683   -9.49583980439201   -2.50219113677385
