85
 SCF done       -169.916435724143          0.000881040666
C           1.10061431069231    1.69849802109829    1.88606155740130
C          -0.01254053074894    2.38028401260087    2.27017643334101
S          -1.15019067907578    1.33543838245096    3.03918115712370
C          -0.10783712004569   -0.05343549541752    2.83987121988169
Cl         -0.56525583613467   -1.58743238759100    3.39255607340661
C           1.04837809225756    0.30472656321312    2.21273095242051
C           2.27845918984730   -0.36085322797613    1.77417481441641
O           2.55638580507770   -1.53498265867130    1.86095568337733
C           3.08977452858557    0.72559727776783    1.13656906134010
C           2.35836224294229    1.98344995888820    1.22668640523054
C           2.75995093509739    3.22596047626161    0.81636684321629
C           1.93387784878833    4.35710086643974    0.98927785961631
N           1.27142391587920    5.28451369519396    1.11914625292022
C           3.99273287376884    3.53272769408513    0.20667598249281
N           4.98041960881438    3.84558893523345   -0.28735376148449
C           4.24720678732876    0.52156756598487    0.45818069441956
C           4.97473395052031   -0.71493837669763    0.41001346055872
C           5.53681146922475   -1.19324873302678   -0.78939183137663
N           6.16136150500772   -2.33698043804755   -0.86970840588058
C           6.25372558996452   -3.08289637099015    0.23480102772605
N           5.83249517772220   -2.68245480949687    1.43740768152639
C           5.22911710892347   -1.52470976781184    1.52974015812121
C           6.86498700403301   -4.37614201557230    0.07319822739776
N           6.83528384068987   -5.39304252828452    0.99125682084432
C           6.27099587953055   -5.36863079582049    2.31986430389382
C           7.24043959222915   -4.75550678774026    3.32521013347282
C           7.46937175295367   -6.54711141442595    0.50263416812264
O           7.55473904132479   -7.58597759062746    1.13138451699596
C           7.92300031713320   -6.17850014246888   -0.81830878438255
C           7.53597129569832   -4.83429276092498   -1.05266889969983
C           8.01516736022328   -4.45099235677199   -2.36940736407870
O           7.96847628075328   -3.42723749053507   -3.00560376400016
N           8.65681767487483   -5.62149000849227   -2.84706249831200
C           9.22364764594604   -5.66229283228477   -4.17271864556769
C           8.28721534937702   -6.33934662807247   -5.17089216406150
C           8.59802111216766   -6.65190708402546   -1.94401526794734
C           9.13548076839487   -7.94221343945026   -2.18299584777201
C           9.00810193536976   -8.95508529039520   -1.28714854380328
C           9.48279143503307  -10.27748192038251   -1.48550184401821
S           9.13667230265813  -11.48725115335682   -0.27919667012462
C           9.93684843835165  -12.71545186635296   -1.19386600992796
C          10.45832398811664  -12.19392495281642   -2.38852560774825
C          10.19249223438104  -10.82492885225115   -2.53558042044771
C          11.15338805181832  -12.97193709301621   -3.40305076249522
O          11.36424494744090  -14.16167221109262   -3.38418239589167
C           9.98029296636280  -14.07214203645170   -0.80079453270550
C           9.33708508596563  -14.59846066309314    0.27158654238185
C           9.36151525697656  -15.97522286243360    0.61195204037422
C           9.58421928032691  -17.06640802048626   -0.17235340997646
C           9.93078376763424  -18.35401051277877    0.51526412620051
O           9.83546012328217  -18.57930798814037    1.69777393202062
C          10.44199892233291  -19.21707113980412   -0.55338016967150
C          11.01343799106655  -20.44955493164126   -0.66191895001259
S          11.38364503018209  -20.80699739186154   -2.33224298910520
C          10.75209331608034  -19.29071584668525   -2.86381476681203
C          10.29127723908479  -18.55666623305170   -1.81675305696852
C           9.63991954583262  -17.27445246327675   -1.61055853247868
C           9.02713060994251  -16.57130356273487   -2.61347889821024
C           9.10612659663754  -16.98706140091747   -3.95983087239445
N           9.15387892420808  -17.30570853462056   -5.06066382745280
C           8.21849272670307  -15.43320126138245   -2.44505067833289
N           7.53009969954341  -14.51716381017472   -2.37224459418069
Cl         11.35768149446328  -21.55530995093417    0.57437030364446
H          -0.24788445820937    3.41960027277485    2.15449860371241
H           4.65762116662468    1.32744071579803   -0.13809339553994
H           5.44118979811041   -0.63741061686322   -1.71296193700836
H           4.97625301831788   -1.19893130750960    2.52916417187470
H           6.07211358468314   -6.41107988347981    2.58413138817768
H           5.33841645946825   -4.80308260698451    2.30301904970683
H           8.17704414917072   -5.30804068858789    3.32849558470688
H           6.80749061945555   -4.79512716287866    4.32038406088618
H           7.43632414190285   -3.71796596575104    3.06889782748172
H          10.19420937810807   -6.16548734927910   -4.14202762055841
H           9.37719249484566   -4.61997136409606   -4.46625786253973
H           8.07612817067379   -7.36542141042235   -4.87733817329672
H           8.74061400589051   -6.34253499567226   -6.15825978656030
H           7.34767815043652   -5.79517540945219   -5.22201332565261
H           9.64273958572725   -8.10831117679364   -3.12173596364085
H           8.49202584013313   -8.76834244135604   -0.35393193253359
H          10.50997990832177  -10.25889770858842   -3.39296328833732
H          11.49238718197588  -12.35516454222118   -4.25690490156691
H          10.58297906955688  -14.70958076385112   -1.43380907016686
H           8.81493805840112  -13.93598582918547    0.95080498985788
H           9.22898616667218  -16.20948034094855    1.66482691002470
H          10.77760991159810  -19.04687477815951   -3.90716899323030
