70
 SCF done       -157.523589116625          0.000889207828
C           2.46186314579567    2.37182875492138    1.87258256773704
C           1.65718947311873    3.33125055832198    2.40747703048288
S           0.74406137769722    2.71201908594643    3.73223519156639
C           1.45219192181162    1.12308025809687    3.56540933142738
Cl          1.02690862298387   -0.14746646989223    4.59883202517755
C           2.34691900188596    1.10641718380052    2.53605708577786
C           3.22839630579913    0.12373525331038    1.90414467179996
O           3.31782457479244   -1.05883119135854    2.12727415390199
C           3.93321287043433    0.89321939768044    0.81863489380531
C           3.43120430548607    2.26588385960440    0.80342137714488
C           3.81545323157207    3.29009478793163   -0.01502870976461
C           3.24495666800568    4.57705691690051    0.10199499453368
N           2.79020452041775    5.62650020225432    0.18323800345488
C           4.79138038187793    3.20915811263761   -1.03021380385587
N           5.57973821910554    3.20889928719877   -1.86377592306049
C           4.79807353376243    0.33824799474112   -0.05406608043171
C           5.35521149622714   -0.99601229193830    0.08267344424251
C           5.40966107133293   -1.85990840319368   -1.01451238018631
F           4.90027406838587   -1.45103888796865   -2.18297408463476
C           5.94161450744458   -3.13118095044730   -0.90643683421432
F           5.94329012307252   -3.92153131520008   -1.98924311366271
C           6.48056525995158   -3.62101447254085    0.29502657384080
C           6.45936329378675   -2.73120996565743    1.37985699284859
C           5.91317897822007   -1.46280363540928    1.27686564507947
F           5.98937778370531   -0.64169532058581    2.32881038873005
F           7.00175670390852   -3.08210875535173    2.55190079717578
C           7.03636973326173   -4.95559573012263    0.31061978485351
C           7.41501051945928   -5.66796462397370    1.38577377368118
C           7.97048145876111   -6.99915569090795    1.30164127370896
C           8.59846731970912   -7.52742398869031    0.16395964984375
N           9.09336452725318   -8.74380804269904    0.12589700235448
C           9.00416697677033   -9.47988209115976    1.22697713822628
N           8.44267322484597   -9.08119469019325    2.36777968694648
C           7.93673507249305   -7.86937145271528    2.40284460223283
C           9.60265434010583  -10.82417612666240    1.21951820536409
N          10.35486678597267  -11.18545349402516    0.18230118321884
C          10.91202024278379  -12.38002158054793    0.24386132070933
C          10.76764167431558  -13.22313137446087    1.33831016817285
C           9.96502411701695  -12.75187639644443    2.38166854809009
N           9.37276906559054  -11.56126261189808    2.28822380290611
C           9.75686253118019  -13.46452235068283    3.62910673239941
C           8.93088490227653  -12.92191584530832    4.54338444430747
C           8.66193402231619  -13.39299479972350    5.85684366123519
C           8.10381507557649  -12.61583015343895    6.82085540313507
C           7.48301774694452  -13.21243910869994    8.04375974452129
O           7.65506445070524  -14.32696311638642    8.47203727851575
C           6.58481375440391  -12.15731018405928    8.53487756859085
C           5.65956124626358  -12.01332150137677    9.52519074601914
S           4.96495220394662  -10.40928484376662    9.48777820050896
C           5.93806680327741   -9.94949150638014    8.13779793471870
C           6.74185047851985  -10.97129351901221    7.74131463275304
C           7.78767004788273  -11.19674956413706    6.76237077176409
C           8.44476832451878  -10.22047187428996    6.06215880447966
C           7.96783515512893   -8.89499581885117    6.01895658544175
N           7.55792331965754   -7.82624850735070    5.93628938147053
C           9.69579457709790  -10.39276963106239    5.42810771555800
N          10.76061295996332  -10.46310414155264    5.00816733857229
Cl          5.18085432867235  -13.15320826642726   10.68286849160017
H           1.53507573998769    4.35576638773315    2.11644917385248
H           5.10708169907425    0.87986765443831   -0.93937631107562
H           7.11445950323863   -5.40806714912828   -0.66864331980973
H           7.29208966958877   -5.28689970371853    2.38869393444612
H           8.73065786842193   -6.94212325571391   -0.73693929830706
H           7.48095514586440   -7.56987938277715    3.33963944802561
H          11.51098704438718  -12.66301249430029   -0.61253200984888
H          11.25187580908181  -14.18515356893863    1.38423251740254
H          10.32821985458058  -14.36302625290763    3.81008752687935
H           8.43115228736139  -12.01320496071188    4.22944318103835
H           8.84842410136979  -14.43234214552999    6.09969086594417
H           5.84318284966244   -8.96301249552860    7.72914847643534
