89
 SCF done       -179.456671527966          0.000554522612
C           1.53607222416301   -1.09292194170894   -5.91376641214503
C           0.91267282766580   -0.50577990779467   -6.97119735354360
S           1.69746265466600   -0.89997444825313   -8.45676707648737
C           2.89398210896688   -1.87891068686387   -7.64189156155541
Cl          4.11913526202813   -2.67431881131035   -8.49744492712827
C           2.67006745459930   -1.87924675947888   -6.29685304202914
C           3.28250282939131   -2.47667793862262   -5.10992239499651
O           4.25443045730532   -3.20026112780055   -5.06672031341512
C           2.45837401297136   -2.00191264556066   -3.96589763757594
C           1.38170965078018   -1.15712768549769   -4.47348921522293
C           0.38695436935624   -0.52892439485584   -3.77537187414628
C          -0.58427747548884    0.25413187680752   -4.43727163760783
N          -1.38113512263617    0.89401433132275   -4.95805589191505
C           0.18451904795862   -0.56365455668994   -2.38009841852687
N          -0.05384544809381   -0.54028816516547   -1.25754491512670
C           2.67243379962033   -2.29112187232509   -2.65277376493339
C           3.66638039513411   -3.09921264505589   -2.05174042937300
S           4.94757817531355   -4.03250687674270   -2.80801322623166
C           5.37811132599479   -4.51648949355555   -1.18776171403696
N           4.59839276237691   -3.98150727172667   -0.26563322198616
N           3.67582072455308   -3.21927918211110   -0.73868965056989
C           6.44870107733024   -5.40457212962506   -0.90726103737404
C           6.74523745293612   -5.78650112352299    0.36126897329791
C           7.78449133307942   -6.70053172751234    0.66403103370501
N           8.09983561099477   -7.10520227883030    1.94060086315090
C           7.51111628682614   -6.62153572514184    3.16623786596546
C           8.04075761136415   -5.24092824857444    3.54512484523785
C           9.14248662728508   -8.05166391304613    1.95358918143985
O           9.59003351477482   -8.55495143023805    2.96242224811194
C           9.47190032957353   -8.22604129696171    0.55614094271122
C           8.63292515397883   -7.38263960302943   -0.20799724060925
C           8.96874372077032   -7.58847125180109   -1.59802397922341
O           8.53677116391081   -7.09646351764067   -2.62093518336257
N           9.98863653532538   -8.56520192128966   -1.58146210631244
C          10.60735668641380   -8.96216655785323   -2.82330566026496
C          11.98792369520444   -8.33463922186043   -2.99957902192481
C          10.29493100799370   -8.95462812902981   -0.29776998391488
C          11.20472788309517   -9.93467192117101    0.18911272463964
C          12.00791243729387  -10.78643454018323   -0.48485959302379
C          12.84674126426648  -11.78904226592033    0.12591418959723
C          13.56196281087669  -12.65709361099598   -0.69987488845625
C          14.34909723792909  -13.67166837576810   -0.17998252461583
N          14.99680890424305  -14.52348431730271   -1.14148669894840
O          15.18701188272959  -14.06577748907706   -2.24737491558205
O          15.31600809341142  -15.64916837570522   -0.80812868684231
C          14.47069655593077  -13.86632559297469    1.21021427634395
C          13.77601531320490  -12.96240823341748    2.02626601087195
C          12.98474846242110  -11.96394239779794    1.51214431390666
C          15.26869866978355  -14.92753335081886    1.77945185779695
C          15.04038604846137  -15.49025121414365    2.98009563772845
C          15.81584447629854  -16.57565703846173    3.50198377510846
C          16.32458898639958  -17.64097257633916    2.84212261643944
C          17.37724271630618  -18.46999262617745    3.52069403556544
O          17.69137124343831  -18.40708332512403    4.68442129569590
C          17.93669310492629  -19.29814248902295    2.45022587423692
C          18.95278038660619  -20.19601674433695    2.30463493843973
S          19.01754647124131  -20.78517160943500    0.66162475067098
C          17.66293925064786  -19.82254424604471    0.19383104513872
C          17.19730286807561  -19.08880489243820    1.23911803600939
C          16.11005330233397  -18.16092341255519    1.49547944841562
C          15.01804536018062  -18.02421102029639    0.68699607787452
C          14.93201363061114  -18.70060696639086   -0.55027360591377
N          14.83984498617698  -19.25779468677172   -1.54805806891769
C          13.85429263077975  -17.28967805348410    0.98509763010356
N          12.86379589677639  -16.74314961822107    1.17936332337378
Cl         20.05030090720039  -20.73088099915634    3.47888934760459
H           0.04990667782565    0.12999528995375   -6.98674588824420
H           2.00615114059985   -1.86299520590081   -1.91299593026886
H           7.01631105726016   -5.77795151842903   -1.74821868970055
H           6.15025991206747   -5.38549560801287    1.16872785064053
H           7.78684179754586   -7.34606038643379    3.93773640754576
H           6.42230715358396   -6.60577649067956    3.06870865498532
H           9.11998732013356   -5.27833926277097    3.67252110567565
H           7.59154575458619   -4.92049835805653    4.48080006527439
H           7.80619476965947   -4.50861174071611    2.77605371814804
H           9.94141721077474   -8.59867811522660   -3.61207768282528
H          10.64885232082863  -10.05248399963060   -2.88452389927544
H          11.89886153470704   -7.25145012400235   -3.02804191476825
H          12.42764096992438   -8.67012341577005   -3.93473682488367
H          12.65238088145404   -8.60356269175714   -2.18149962899710
H          11.18285829775118   -9.97680245226717    1.27032970438226
H          12.04744083141749  -10.77355246511046   -1.56284106842314
H          13.49621115109237  -12.56648985882617   -1.77484584378374
H          13.88067989464593  -13.04729170545636    3.09619780787104
H          12.46702016011522  -11.30714486183652    2.19272193381166
H          16.08101965928442  -15.31612362045779    1.18077318430036
H          14.25956114823722  -15.11310982904059    3.62684555427208
H          16.05649304921533  -16.53235262100187    4.56083074568779
H          17.31519568154361  -19.85865068932013   -0.81927864658055
