103
 SCF done       -202.952311806166          0.000602797279
C           3.12521907745822    3.56221318683718   -5.38135912008058
C           2.58423601506058    4.73214496323340   -5.81693792851411
S           2.82439102546607    4.93704191465634   -7.51372728196392
C           3.67344757317059    3.41383489203024   -7.64254581657041
Cl          4.28172950073091    2.86531088324338   -9.12513323573577
C           3.74891303925999    2.80768769225073   -6.42462030740000
C           4.29888251474110    1.55925764633884   -5.88388581579363
O           4.84460124758379    0.67844518260348   -6.50711382895772
C           3.97865251041073    1.60053185503009   -4.42377950230400
C           3.26969310763973    2.84089111580271   -4.13271608378018
C           2.84576469545890    3.31882327380632   -2.91998887340250
C           2.17833127842773    4.55838399111839   -2.81853723332712
N           1.62998985010567    5.56075761499463   -2.71438718865987
C           3.02017277982811    2.70962877105763   -1.66087046082807
N           3.13362057962417    2.29558827129521   -0.59580194358180
C           4.20430940169019    0.62965886285733   -3.48767944584966
C           4.96340387730432   -0.56450806220348   -3.53086121666048
C           4.92548353808253   -1.49833921421243   -2.50898675852878
C           5.81962492943880   -2.56504046671987   -2.81020694333523
C           6.45638551214949   -2.20995010024502   -4.08816714126263
C           5.94572723205078   -1.02218536403114   -4.50658587603880
C           7.49428651702219   -2.89800034810094   -4.73183616641559
N           8.37767326213289   -3.40380521757245   -5.26308009545684
C           6.07294321693249   -3.69033413634307   -2.05504013839662
C           6.93118645131883   -4.76942322814811   -2.38587795190782
C           7.01457687499086   -5.63624750912883   -1.31018710155828
C           6.14968537044341   -5.11716172097804   -0.25788026844668
C           5.56161567754006   -3.97601750246170   -0.70111225620716
C           4.63764723127864   -3.22122678362413    0.03123741896777
N           3.87881649173040   -2.63487425185267    0.66299603000305
C           7.82525876486223   -6.79859268204525   -1.31706390694631
N           8.31315182723564   -7.49704832254324   -0.23883011009323
C           8.17968013773863   -7.18332663229382    1.16524522344583
C           8.88115739308429   -5.88095153455661    1.53638028455046
C           9.15692701109691   -8.55155434547895   -0.63903378445401
O           9.73221831140496   -9.28189410223629    0.14277494761486
C           9.13161081494098   -8.50887879901054   -2.08358963046991
C           8.31558019020551   -7.42744055033981   -2.46869718131012
C           8.22270355105539   -7.42998220269443   -3.91895480736989
O           7.60732721391109   -6.74117178131335   -4.69848822035978
N           9.03347464496107   -8.51711235060657   -4.31143762998005
C           9.27214063132642   -8.79737219478675   -5.70801314121655
C          10.58409199400438   -8.18084318603535   -6.18510387910110
C           9.58904533662382   -9.15925232709129   -3.23946762664858
C          10.46527066441540  -10.26252869763352   -3.35576595731910
C          11.04366544086617  -10.85480138323526   -2.27529585472008
C          11.95465204944837  -11.93225660074777   -2.37525192022822
S          12.69528156491771  -12.55469298284108   -0.91089145315331
C          12.43478316543349  -12.63657794679432   -3.46928869331508
C          12.24383704848457  -12.69841261594338   -4.93106234285586
O          11.54400907268470  -12.03311308820951   -5.65790869391996
N          13.06169881529908  -13.73378722913770   -5.36257540160759
C          13.17142307272385  -14.12515021905277   -6.75261549921549
C          14.24332448183746  -13.31564189046185   -7.47342683341339
C          13.78242511801666  -14.34274773483890   -4.34250588305497
O          14.55260817882038  -15.26141318512887   -4.47794090478983
C          13.37348447352587  -13.62584626588319   -3.12703032425023
C          13.64875625743096  -13.73063957558168   -1.77998943121554
C          14.52695075155857  -14.67486262186673   -1.19801691065894
C          14.69602857323211  -14.88095042634271    0.12958472406101
C          15.58180507722469  -15.84366274808836    0.68252403062195
C          16.09482951165992  -16.98372307145687    0.14509475825736
C          17.29995133890115  -17.57739927655056    0.81854179356876
O          17.73323000553987  -17.26827736864463    1.90170629275918
C          17.82425140065530  -18.54372321837989   -0.14895137293238
C          18.91250994694456  -19.35655397940425   -0.26602228971386
S          18.85446625291722  -20.24095035506139   -1.77217936937564
C          17.35549152095052  -19.51079258463253   -2.21858944619685
C          16.93282353456066  -18.63560193468668   -1.26785947045276
C          15.78900173530721  -17.76907351395194   -1.04044858817180
C          14.60704872379744  -17.88356628059613   -1.72323988498657
C          14.46420446600420  -18.78161139292549   -2.80322444752673
N          14.32652343633102  -19.50635648622394   -3.68127402730554
C          13.41465981360706  -17.20368497202452   -1.41690608682858
N          12.41150941760873  -16.68985793648460   -1.19848662399081
Cl         20.19137194952613  -19.55467800633534    0.82614492643091
H           2.05878409046812    5.48749538172535   -5.26736530176605
H           3.73224028939503    0.78400313227085   -2.52334471413020
H           4.30235541870771   -1.44576416670996   -1.63658338191043
H           6.21767804556288   -0.49739809743121   -5.40078869143507
H           7.43892167457698   -4.88188047064675   -3.32255024994214
H           5.96019566226111   -5.57810821492534    0.69218934536563
H           8.65035642361798   -8.01814860428714    1.69349730140332
H           7.12312174350719   -7.15759041004797    1.44261588136424
H           9.93807362768620   -5.94319590844924    1.28832118049718
H           8.78507105905245   -5.70646883071132    2.60433210316034
H           8.45025656235915   -5.03433066819277    1.00626913462625
H           8.43714137271574   -8.35018458065838   -6.25397646477622
H           9.27194367393698   -9.87730900453698   -5.87114638238455
H          10.56342015517880   -7.10294170455716   -6.04368734066671
H          10.72095332691485   -8.39115313211727   -7.24160588349635
H          11.42744969506342   -8.59375802285272   -5.63627795342887
H          10.68484870325278  -10.63164048619909   -4.34700711523331
H          10.82753809535857  -10.49529020505387   -1.27732319631237
H          12.19598568608686  -13.96357814450926   -7.21746520963864
H          13.41963107395857  -15.18882209215144   -6.76958819336473
H          13.99862345316337  -12.25630539308907   -7.44478284324880
H          14.30494063721038  -13.63200497601932   -8.51055968778785
H          15.21174699033158  -13.46935751924880   -7.00291560525762
H          15.09618947703107  -15.24706960093535   -1.91979863976283
H          14.17793433141742  -14.23641291582171    0.82840953800478
H          15.96283053935087  -15.61878427181747    1.67532505640319
H          16.90201312837408  -19.77105069847672   -3.15421951067535
