82
 SCF done       -152.282320846884          0.000819780190
C          14.33606895392859   -6.77610732139083   15.44294724914229
C          15.39200291242238   -6.82040237487035   16.29892837046865
S          16.88753547422332   -6.91919083494693   15.44208792262009
C          16.07579269691925   -6.89986357599381   13.89409480104678
Cl         16.94307883324418   -6.97356706587640   12.44135265574533
C          14.72624424693647   -6.82116611292626   14.06573074211838
C          13.53511468966554   -6.76704566941658   13.21625159136560
O          13.49494871564002   -6.78527896871235   12.00118504239220
C          12.39220416731300   -6.68573946067801   14.15063050675824
C          12.88934309772780   -6.69456665759684   15.51889135813759
C          12.18234871819346   -6.63906356651411   16.69073155988735
C          12.83864779681764   -6.65541372257782   17.94013278170406
N          13.35552801833409   -6.66596787428226   18.96451449834544
C          10.78147223038258   -6.56163618459254   16.81975689595816
N           9.64919216272599   -6.49953176057246   17.00073788827051
C          11.07277171668616   -6.60991408792657   13.79560083132398
C          10.46666489820823   -6.58531408127734   12.52506290467298
S          11.26491501557304   -6.64925542929732   10.97158114216983
C           9.75409380278282   -6.55529380809388   10.13147809130769
C           8.67197028632028   -6.47947323420828   11.02541540391529
C           9.09180144749118   -6.49758605297594   12.35710110440187
C           7.26252319200957   -6.38496466113030   10.66179111800876
O           6.35571691480044   -6.31576381658528   11.45266070380498
C           9.70331769090358   -6.55434404891239    8.71452448134293
C          10.81041396783304   -6.59817361924703    7.93271418485105
C          10.81684686343816   -6.58659047298576    6.51331317065246
S          12.34973080171865   -6.58250904004726    5.67539426609778
C          11.57714670892099   -6.54833839779578    4.12542721137266
C          10.18464285322215   -6.54767634697911    4.26761123315510
C           9.77592610712780   -6.56745099533956    5.61327829834561
C           9.23230177949270   -6.52766703943845    3.16625572787986
O           9.49035458876270   -6.52168038006799    1.98735292937167
C          12.30810540287214   -6.50715977131370    2.90813727947594
C          13.65493402372652   -6.48967501994843    2.84392854844398
C          14.44812201006538   -6.42036247460384    1.64156805964987
C          15.84068507488219   -6.33671367131207    1.74134972914839
C          16.61602423545633   -6.24609317988105    0.59200526821529
C          15.94400126141572   -6.21320447366333   -0.63776824983958
N          14.63485514831595   -6.30852413216074   -0.74411984582856
C          13.90584988877980   -6.41397901511695    0.34743062171017
C          18.06517015289482   -6.13275347177253    0.61807199490211
N          18.90500791804250   -6.93606990688764    1.35021453347441
C          18.55791963794158   -8.14498525249462    2.05801535015552
C          18.05647792028126   -9.23384077752163    1.11392383970305
C          20.25968782843835   -6.57521411001865    1.16201863493260
O          21.17883756988580   -7.16431578766743    1.69731718144666
C          20.20900378820211   -5.44808771567020    0.26667537350094
C          18.83428181766410   -5.21841711751895   -0.06140407612707
C          18.76885698575374   -4.06962816860150   -0.93549427022041
O          17.84468544602614   -3.49373269952156   -1.46743250020857
N          20.11733210243370   -3.67857134511509   -1.08241738022628
C          20.47550425301637   -2.57919290886511   -1.94439501670992
C          20.99070393578122   -3.06181628134563   -3.29837473676301
C          20.97335026955432   -4.49054547870522   -0.37568062666785
C          22.39684799411625   -4.29757441567626   -0.34438928546433
C          23.22178708975133   -5.10576497619818    0.32300291787838
H          15.40291691757807   -6.80250799829422   17.37054196859155
H          10.35270611955126   -6.55624262262382   14.60396411502128
H           8.39988110232721   -6.44547196316439   13.17983024335204
H           7.06411562121416   -6.38097130759095    9.57326105277233
H           8.72646352714612   -6.50893742161227    8.25555799222742
H          11.78136301619602   -6.63584419836334    8.40989044750865
H           8.74166591817415   -6.56930402374740    5.90709331242533
H           8.18138088552417   -6.52189524596790    3.51482700717297
H          11.70013893370263   -6.47838228904998    2.01566583056024
H          14.21655868117699   -6.51749839557167    3.77232586915164
H          16.30283237793005   -6.30154665638034    2.71810218038196
H          16.49393326035860   -6.11518002787527   -1.56249064269934
H          12.84031956171724   -6.48928358360791    0.18424714714152
H          17.80974966624415   -7.93641361903191    2.82665888289730
H          19.48116112161856   -8.47018832139909    2.54702531686688
H          17.13812518776148   -8.92555248647228    0.61806951018635
H          17.86034611668088  -10.14365529885007    1.67444802399810
H          18.80661205907147   -9.44701805625611    0.35611058141949
H          21.21651935028308   -1.94629449294122   -1.44777335061487
H          19.55823691961717   -2.00050830475919   -2.08765578445806
H          21.87797479297226   -3.68032223372607   -3.18110056411055
H          21.23771666023520   -2.20855559046908   -3.92400666324903
H          20.22365903463178   -3.64841886128405   -3.79791403172596
H          22.78671994406255   -3.45072903322153   -0.89201647820851
H          22.85519876695416   -5.95476844581114    0.87522245054397
H          24.28425135217227   -4.93347070708321    0.33178557156889
