86
 SCF done       -173.507885099599          0.000547122212
C           9.27958888643851    2.00675315912855    0.64451335959334
C          10.25823631010281    2.94404814572128    0.77239889942533
S          11.73483511420928    2.40639993182051    0.06028917972360
C          11.02454375386063    0.88519280920244   -0.42320785455025
Cl         11.92287204109832   -0.28747544266754   -1.25069255343245
C           9.71715285102384    0.82868725224583   -0.03883526776125
C           8.61875080741943   -0.13265596934839   -0.14082968983643
O           8.66072614347160   -1.22069710042867   -0.67200141058468
C           7.46404859033028    0.52391075135520    0.54426202978352
C           7.88504056513872    1.84850044026065    1.00396045372862
C           7.15197147283480    2.80811760621634    1.64783625261435
C           7.73438313306641    4.03958029813634    2.02256748215560
N           8.18582808263329    5.04592908354153    2.33710504354926
C           5.79097888768514    2.74465834784884    2.01218015588016
N           4.69115172840226    2.78150847089463    2.33978110338683
C           6.21138778365518    0.03266636660396    0.76680571489727
C           5.59872558893889   -1.20260447572503    0.43416418445443
S           3.94783572636322   -1.42331474802004    0.96327244890727
C           3.89787868136846   -3.00208523318134    0.29071709955032
C           2.64825679346797   -3.74004285869449    0.30798375265524
O           1.64662581746736   -3.36333310514693    0.85994430617217
C           5.10795542072084   -3.34854761832084   -0.31818388763344
C           6.05586891693342   -2.32059155946404   -0.23914604356099
C           5.36008595877892   -4.66448713114917   -0.86019795662017
N           6.01626170897592   -4.93215902145363   -2.03031835218784
C           6.51108068583714   -3.98489389130127   -3.00310472654177
C           8.03227794866171   -3.87013807376233   -2.96157959235201
C           6.10868104307070   -6.32284492084496   -2.26399805033838
O           6.60736209953990   -6.79863345009458   -3.26486605866954
C           5.48439226444341   -6.92389092135951   -1.11010413011774
C           5.01709710155292   -5.86864081184935   -0.27673991993001
C           4.44390493531213   -6.45300897489597    0.91644312366595
O           3.94468270896719   -5.96088799975624    1.90488034348650
N           4.59205489578008   -7.83915957643202    0.71920552173089
C           4.07087415020674   -8.78219625916106    1.67833361661142
C           2.73475153872272   -9.36897957903340    1.22925837629791
C           5.20561544890228   -8.13228472419505   -0.47930535862535
C           5.48930914128438   -9.45279963943320   -0.91200015620812
C           6.06668170530898   -9.71698535196129   -2.11206986727463
C           6.37513582602367  -11.01829355758922   -2.58828645425558
S           7.05643055525132  -11.20277589604458   -4.17990075320318
C           7.12088923103423  -12.92807095678718   -4.01955813973885
C           6.63718084377950  -13.32967801531755   -2.76336532193588
C           6.22202797887555  -12.24772318863703   -1.97639646613145
C           6.55799228566366  -14.70867822922760   -2.29754894556218
O           6.85948956742132  -15.69851285331772   -2.91692626700762
C           7.61360068579659  -13.76869443037600   -5.04102913026315
C           8.04551994074016  -13.32446997167897   -6.25229478910578
C           8.53773561376021  -14.19781676177489   -7.24480408862537
C           9.10520822029671  -13.86634074474654   -8.44031771736415
C           9.20444432442909  -14.90939911605240   -9.50809836843673
O           9.04656166694495  -16.09805729902231   -9.36809350300518
C           9.47553989759546  -14.15042552223494  -10.73551156132872
C           9.60101785745809  -14.40957366322329  -12.06690554104952
S           9.92365518981631  -12.93526597637153  -12.95019621621962
C           9.89273853059706  -11.98880768432018  -11.50626803059056
C           9.64427562809017  -12.76248205713864  -10.41667183163513
C           9.54170264228510  -12.59257603396734   -8.97735182520227
C           9.97580547244270  -11.48117538746173   -8.30216547802241
C          10.39971916792052  -10.32738729545896   -8.99479299919209
N          10.72978242348741   -9.37488857599245   -9.54272734472186
C          10.15514072813467  -11.38336122799418   -6.90787635046950
N          10.37030186406048  -11.25568893213707   -5.78760501124419
Cl          9.48442631976617  -15.90307350608155  -12.85777358076419
H          10.22121085906297    3.91090451096757    1.23339560509658
H           5.53933840175834    0.68907449066395    1.30720531038780
H           2.67795396449882   -4.67839313481557   -0.27449324481456
H           7.05680304030910   -2.39380981934731   -0.62018147063327
H           6.03873318830374   -3.01713026159725   -2.82251376214547
H           6.21168305629460   -4.35290003757954   -3.98987367659609
H           8.37985928306176   -3.50104638794585   -2.00043522317747
H           8.36396255059414   -3.18216523608775   -3.73409002599404
H           8.47749423276631   -4.84392095454154   -3.14810377321535
H           3.92972365124619   -8.21934221853106    2.60540135767796
H           4.80677065494193   -9.57177197322199    1.85552079782602
H           2.00267991492642   -8.57385425251756    1.11223364353557
H           2.36954783203965  -10.06792571241359    1.97649343997569
H           2.83479374374869   -9.88971815453373    0.27908489604195
H           5.22792616240980  -10.26228392370623   -0.24697055772650
H           6.31613974961029   -8.89423749184448   -2.76940419129658
H           5.82452340896634  -12.36857408373372   -0.98457726847189
H           6.17192673504372  -14.78464449495791   -1.26243118517104
H           7.65491736462028  -14.82417477741260   -4.80388352936038
H           7.98556480160134  -12.26689138656040   -6.47059392803662
H           8.39232473035869  -15.26093919011015   -7.08247143936598
H          10.05208378057828  -10.93069285326497  -11.56860763191655
