106
 SCF done       -214.222876000380          0.000761483927
C           2.95091870933783    3.36601897274098   -5.26851792970901
C           2.45121781065612    4.46995181523418   -5.88739729561438
S           2.93067290020993    4.52748524262754   -7.54386621755894
C           3.82354024690985    3.03082126118789   -7.40613212808790
Cl          4.65236560691197    2.37094107915345   -8.72709058570187
C           3.73790266353834    2.54149867226194   -6.13639088289578
C           4.22510605071988    1.36806590888394   -5.40626912313998
O           4.84346669872585    0.42472834289944   -5.84125624605001
C           3.70685357163132    1.54582240492148   -4.01259805477250
C           2.92221869340472    2.77008525464016   -3.94809928396718
C           2.30644985295454    3.32111753061106   -2.85597574832274
C           1.59223043593150    4.53466040677852   -2.95309242162281
N           1.00472799957737    5.51746025716062   -3.01862060495325
C           2.31703639942311    2.79241098061786   -1.54947151858812
N           2.30105838007918    2.42360872020257   -0.46261258486682
C           3.84364257817616    0.62788017011798   -3.01558988518838
C           4.71149282723198   -0.49701276660352   -2.99704735972821
C           4.48483606313505   -1.64736608260074   -2.27286791844794
C           5.55393604578052   -2.56482766010574   -2.50644716473105
C           6.51007454728013   -1.86285258802347   -3.37740622730700
C           6.00668953665030   -0.63324770419479   -3.65889749405294
C           7.78303861783917   -2.31075681749777   -3.75775876314285
N           8.84899852001484   -2.62359831439740   -4.04690589810021
C           5.68945880521341   -3.84144600305242   -2.00826211800755
C           6.71287848635494   -4.77641486399671   -2.31622516488710
C           6.55523985865134   -5.90474414701521   -1.52894293308473
C           5.37238241842755   -5.70350922224014   -0.70281114545593
C           4.83286409978833   -4.49277004718915   -1.00170433387899
C           3.66792610435342   -3.97339957796759   -0.42414828978407
N           2.70617241864199   -3.58136641819652    0.06537274068338
C           7.43491528735418   -7.01348853447267   -1.58867076219899
N           7.62651791287763   -7.99466745017321   -0.64881173084516
C           7.04437618909836   -8.10067915435614    0.66999925163108
C           7.48518796451862   -6.96611651022960    1.58860587376734
C           8.63692454142830   -8.89539325204952   -1.03712512436236
O           8.99151510068386   -9.83744373616424   -0.35678851971055
C           9.05905785514539   -8.43467035429026   -2.34134258765566
C           8.30954869583715   -7.28836669310522   -2.65227740704607
C           8.65522653111202   -6.87832266235959   -4.00496684850161
O           8.24325048059264   -5.99093287578838   -4.71381458651930
N           9.62747077827157   -7.81575226836384   -4.40858526178225
C          10.27389508602987   -7.69703820602341   -5.69650680764401
C          11.66021471650884   -7.06967261477433   -5.58797837894279
C           9.89410358257735   -8.73843271410783   -3.43456528140786
C          10.85474126839115   -9.76007654167493   -3.57588318489910
C          11.15784944185165  -10.62996954436908   -2.56436086286984
C          12.20816413328473  -11.57380442196974   -2.52360858483603
C          13.46738272838709  -11.55531723182353   -3.12866923740387
N          14.01004887408379  -10.71498553057983   -4.12137213962933
O          13.26835668429598  -10.16882823968981   -4.92413641470201
O          15.22139221105617  -10.59702933006973   -4.13681165498265
C          14.33184974354211  -12.49066696794623   -2.45932631438377
C          13.62227714232367  -13.15845650366411   -1.51912118352644
C          12.25787594290427  -12.70304418948002   -1.55606887056105
C          11.19729368978136  -13.32034774883362   -0.93756841875917
C           9.82639256737439  -12.88436155921190   -0.82555739324258
C           9.21166558605459  -13.62519279359272    0.12212709495835
C          10.13899238636239  -14.61733597353234    0.62092080265736
N           9.71328165324465  -15.60834686248339    1.53013851884467
O          10.54857286393400  -16.27753011643372    2.11472403277413
O           8.51162105888650  -15.73630109347857    1.67656204566632
C          11.33177798184806  -14.51434861998005   -0.06723018274898
C          12.40550422244266  -15.45522329415412   -0.14237167526905
C          12.99938632813356  -16.08019329331373    0.90114821764327
C          14.00378312970397  -17.07202739011013    0.73949476128095
C          14.87044637252575  -17.48264026484248    1.70222381747633
C          15.57842577786862  -18.79815877698564    1.58746444631962
O          15.68430551441740  -19.47210187655281    0.59299966717388
C          16.04759759908551  -19.06935069020422    2.95217788146409
C          16.66908897976326  -20.08647651173130    3.61386212044359
S          16.90867903995417  -19.66799715963323    5.29461919893168
C          16.17851988647346  -18.11899547075672    5.08130684881829
C          15.76820464592271  -17.94320793785723    3.79740914396109
C          15.15628331717583  -16.89961336588346    2.99949892863085
C          15.07353935814773  -15.57709665686477    3.34778249074500
C          15.42485308929943  -15.13474868935426    4.64058262747644
N          15.69727759236653  -14.77109316001844    5.69361049180776
C          14.76598782939837  -14.54497997671585    2.43919920271196
N          14.58394247603534  -13.67898876714951    1.70788515575635
Cl         17.17850541880946  -21.57820926498864    2.99613877313328
H           1.83329326654072    5.25127652289176   -5.49142733901101
H           3.21651290576125    0.72902704202908   -2.13725973322628
H           3.61429604444323   -1.85570786538357   -1.68099518499694
H           6.49881070786849    0.13348858433214   -4.22382771763513
H           7.48247085819267   -4.62144196793214   -3.04560639086090
H           4.95729483398736   -6.40585379101737   -0.00625901430818
H           7.40073200958070   -9.05551106969168    1.06825314781370
H           5.95564085394006   -8.14940458195843    0.59257629635221
H           8.56841521852541   -6.96219682237162    1.68349839599184
H           7.05191525650601   -7.10728247204490    2.57469082361451
H           7.16747166051766   -5.99906049690154    1.20491681745957
H           9.62423836860389   -7.05182119557456   -6.29430805328114
H          10.33220323934966   -8.68091728906268   -6.16804613370056
H          11.59939577678444   -6.11290554697578   -5.07513033290334
H          12.05736199934407   -6.90356479027813   -6.58484704085878
H          12.34547348316994   -7.72083928544995   -5.05222938687929
H          11.36721351717944   -9.83070428670211   -4.52184920852994
H          10.57842346282884  -10.55838252823403   -1.65383727051244
H          15.37375523948660  -12.59574933659816   -2.69605240836087
H          14.01328442883938  -13.87252593276864   -0.82341409231799
H           9.37246364035509  -12.08060490118405   -1.36430209909178
H           8.20112255350125  -13.53921855193742    0.47272024122776
H          12.77228306943990  -15.65322756278292   -1.14369105359924
H          12.70992355199125  -15.82524105953918    1.90918634135270
H          14.03954753853717  -17.61311292623696   -0.20013263598467
H          16.09352831011175  -17.45418984969440    5.91811363509574
