74
 SCF done       -141.701084553832          0.000724990142
C           3.27394987256444    1.65557501818021    4.15106259128438
C           2.68237725795899    2.56266392091791    4.97499757089253
S           3.56914353338854    4.04258881901020    5.01414513716308
C           4.76632382664282    3.43267614162537    3.89658487179638
Cl          6.07674873073721    4.38134270980248    3.39873601898165
C           4.46727875155286    2.15249749752758    3.53284466742347
C           5.03889359828745    1.12240400003689    2.66750583739670
O           6.04949346588936    1.19027932377273    1.99743655526635
C           4.11991701899163   -0.03619396868782    2.77930093644566
C           3.04059331037685    0.29685294699180    3.70301422322590
C           1.98957603942366   -0.48187159621743    4.10582391356905
C           1.02676339353577    0.00339309816888    5.01779885903098
N           0.23225441234187    0.37599885004237    5.75612678611165
C           1.72789936576426   -1.80521970166188    3.69715147380221
N           1.45863688081095   -2.88218761455958    3.40416504766313
C           4.24827299134659   -1.21907285181274    2.11435315185457
C           5.23002365658271   -1.64911108369692    1.18965489626917
S           6.62810667682634   -0.77607786709527    0.64864150817108
C           7.09357876957076   -2.07995433818507   -0.38600402815896
C           8.36467306401503   -1.94633883763520   -1.06625605983141
O           8.90030055698475   -2.76164813767149   -1.77832599987146
C           6.19176119753310   -3.15087313612778   -0.33113605670816
C           5.16080824731593   -2.89430844205993    0.57710650273328
C           6.26755394756359   -4.37207992813365   -1.09590284006724
S           5.64105290336950   -5.84964827324129   -0.44044477402952
C           6.07883909357229   -6.72424127022761   -1.87460015854555
C           5.92319485837465   -8.16082105496278   -1.89708431224544
O           6.30544409803350   -8.89646331318897   -2.77435781691218
C           6.65602458927859   -5.88584839458897   -2.81716782885253
C           6.76043294699091   -4.56018892004633   -2.36156534381540
C           7.11128163147197   -6.27572988379681   -4.14909791993956
C           8.36110438858245   -5.86100193251822   -4.59788052698960
C           8.76012017704492   -6.18430449723610   -5.89071870515835
C           7.85472782147878   -6.88933563723314   -6.69124620597841
N           6.66781603165683   -7.27098511951470   -6.26979218747989
C           6.30038348321869   -6.98376544969096   -5.03788151207900
C          10.05041950785658   -5.78385433692894   -6.42955881991183
N          11.25332874939013   -6.06648191195941   -5.83730627687273
C          11.47709999912072   -6.91672995090509   -4.69252413671132
C          11.11551200435873   -8.37073013641639   -4.98158734784572
C          12.33772366354988   -5.55409197268965   -6.59283409336651
O          13.49864493528159   -5.69442892427477   -6.27028609656517
C          11.70459470031758   -4.89338908158385   -7.70698141786635
C          10.29288641539171   -5.07303407380374   -7.58254318412869
C           9.66595332501481   -4.36126482095054   -8.67011390618047
O           8.50655108937017   -4.19527375300815   -8.98313920739657
N          10.74929323564601   -3.80518188184903   -9.39379201549903
C          10.47980697703575   -3.01670589543774  -10.57028089070853
C          10.56950791028943   -3.85049943754807  -11.84696530935572
C          11.96154485227304   -4.12137007806716   -8.82497460516103
C          13.29174681803783   -3.74380624538975   -9.22282173487199
C          13.71972341246886   -3.13925696108817  -10.33090884330670
H           1.78990801213875    2.46950842690597    5.56145796760740
H           3.48615705463110   -1.96853886862230    2.29334135199609
H           8.84946764157594   -0.97555434433415   -0.84665133047764
H           4.36644958424128   -3.59308681800791    0.77670156256799
H           5.42289886221423   -8.55434437533708   -0.99009877526759
H           7.17093751368007   -3.76770437343467   -2.95865497679926
H           8.99945298508600   -5.27645459847769   -3.95078045271517
H           8.11105298517997   -7.15662280201353   -7.70665895370212
H           5.30997154837051   -7.30740721111518   -4.75101379213043
H          10.91023076581009   -6.54995978329901   -3.83319328991783
H          12.54537639848770   -6.83268171155575   -4.47184189936456
H          10.05005720153723   -8.47646059811205   -5.17490529033931
H          11.37354527188961   -8.98855669688112   -4.12602548522472
H          11.66585886788971   -8.72940258640508   -5.84836002507572
H          11.15807041372936   -2.16104924937897  -10.59785559675801
H           9.45484393240364   -2.64910666852258  -10.45686201025721
H          11.54414410174525   -4.32493898861730  -11.93939172844625
H          10.39931392515928   -3.21859491975081  -12.71476325091223
H           9.80967758795582   -4.62780797751963  -11.82883543735339
H          14.02014446904639   -4.03943847680643   -8.47703333737584
H          13.08276167653788   -2.83776338713293  -11.14191586576079
H          14.76950101618144   -2.93777560596162  -10.46153977120194
