98
 SCF done       -196.058735416206          0.000938495692
C           1.06765752342769   -0.61810985572739   -4.81193027560725
C           0.28613324052062   -0.35571907057725   -5.89345920951405
S           0.63881176695118   -1.43341195769193   -7.19532033749116
C           1.86832792355861   -2.25745066117314   -6.26613525526767
Cl          2.74712506160921   -3.55279283954659   -6.91334757259335
C           1.97441977900377   -1.70654431370420   -5.02396386581512
C           2.77075623576815   -1.92225861978719   -3.81615940156684
O           3.63239048586722   -2.76338245888869   -3.63942399066903
C           2.31500033053869   -0.89654647979940   -2.85794501874323
C           1.25220339548020   -0.11021932083166   -3.46556863538686
C           0.51559712569703    0.90604895216307   -2.91569873298815
C          -0.48913835515101    1.56345466816702   -3.65688353084361
N          -1.30644869506208    2.11087142253898   -4.24698685037110
C           0.63837963487893    1.39961208640770   -1.60250133782145
N           0.68873473671035    1.83553302798203   -0.54093126116828
C           2.82209077676093   -0.68412945330286   -1.60271280869537
C           3.82249270484000   -1.36758517538246   -0.89200877189715
S           4.69477840677946   -2.76372724820169   -1.45714028683331
C           5.58455172620044   -2.85820801454565    0.02679241900419
C           5.23908306243831   -1.83666236625712    0.90985972953840
C           4.24578670237820   -1.00332663788592    0.39611894269492
C           3.72224376688270    0.17826423303455    1.14666060000602
C           4.17984699243557    0.18697512651118    2.60555743619822
F           3.96906542290455    1.45121093459780    3.10705075159367
C           5.66261404254309   -0.16986102494502    2.71113613986003
F           6.07017760257878   -0.08494255015942    4.02297056408486
C           5.88705428366423   -1.59815019041229    2.22818072199223
C           6.49016980614799   -3.93165473998499    0.27617588684797
N           7.32232340099518   -4.48691581483646   -0.66320153278625
C           7.55276695183243   -4.05382567119930   -2.02229430147152
C           6.77184283977533   -4.89070143575885   -3.03061410961102
C           8.07283650685475   -5.55929097477784   -0.13151413155239
O           8.90126199888204   -6.18176111236870   -0.76004091709548
C           7.61563760872478   -5.66178257742588    1.23222275388027
C           6.65993770147448   -4.64185400383851    1.46363340618233
C           6.16435428569647   -4.82610064200184    2.80842924070152
O           5.30273544091336   -4.25077528081210    3.44539807350618
N           6.90901964290111   -5.90460512411039    3.32649692677162
C           6.60612794035282   -6.39589504409937    4.65004146828619
C           5.81344233971065   -7.69958704790051    4.61101792609360
C           7.76441399080389   -6.42888713051528    2.38260619261038
C           8.66619403463193   -7.52440561746813    2.43773236965576
C           9.06104062491420   -8.24971495584283    3.51388583389449
C           9.96982336467878   -9.34075038768089    3.52369700311527
S          10.17099761255049  -10.13778968310123    5.06051153910690
C          11.25143658780078  -11.31388465492100    4.37950442235360
C          11.43034805093758  -11.08178936123246    3.02269234607990
C          10.74573835021810   -9.95473212457641    2.54379222143916
C          10.87099565204940   -9.50162217196885    1.12517579986696
C          12.02909622703562  -10.18105301327240    0.39241978746547
F          11.84614105066927   -9.98827095726655   -0.95769695489142
C          12.07018240740315  -11.67923737115767    0.69168958976374
F          13.08436048141397  -12.27075515500716   -0.02634374888862
C          12.33824466231257  -11.90644184322570    2.17548876489904
C          11.77106344131000  -12.38697563144249    5.14749652177168
C          12.04775105144048  -12.40384706827099    6.47773487830763
C          12.12464899409316  -13.70793380145375    7.20737936030014
O          12.17225806066147  -14.80673219670550    6.71034775119455
C          12.06804478265325  -13.32943282056259    8.62510761708071
C          12.00501797310730  -13.96346310800952    9.82992388429088
S          11.96857161765942  -12.79955838270789   11.13437238299922
C          12.05137820334120  -11.46975610911104   10.03654579476132
C          12.09361652680411  -11.90005184297364    8.74827724181136
C          12.21417801268361  -11.31846791354841    7.42599248370138
C          12.66052490181729  -10.04979893600605    7.16255589635630
C          12.85179917009592   -9.10673921959400    8.19208645006914
N          12.99052443821718   -8.32760097842469    9.02258067699380
C          13.04919995235305   -9.61099421684387    5.88240409532809
N          13.41690190368491   -9.25744680079650    4.85371932852814
Cl         11.96558127015052  -15.62890216369195   10.13490420834166
H          -0.47127421189520    0.39172959340205   -6.02235139997598
H           2.39358465056067    0.14338157579363   -1.05310988542211
H           2.63092724916106    0.21576672484858    1.11950256611060
H           4.08531229995099    1.10112081859703    0.68036282279312
H           3.59149990143648   -0.49670541336088    3.22940196161454
H           6.26609977229968    0.56144196913999    2.15753099669321
H           5.46077819569329   -2.28314353625079    2.97270614159244
H           6.95649098863882   -1.81267203112124    2.17707960697534
H           8.62372916007788   -4.18221075002975   -2.20871916987647
H           7.29586437556584   -2.99684416126470   -2.11257238558377
H           7.04009860347442   -5.93849101676407   -2.92324358569203
H           7.02232425343857   -4.56815819436978   -4.03681027149364
H           5.70032023762050   -4.77737371339847   -2.88955353747993
H           5.99726432904468   -5.61613062379871    5.11780872496722
H           7.52754496496144   -6.50237213776602    5.22776327552149
H           4.86876037580258   -7.54029383266598    4.09702542644725
H           5.60493386450453   -8.03204578572242    5.62397150700760
H           6.36207033472088   -8.48141568089707    4.09093833401965
H           9.07741763623277   -7.74247506278524    1.46458476143302
H           8.66590542700597   -8.01627877305257    4.49138195228709
H          11.02092909105781   -8.42127893492148    1.08006924771309
H           9.95150996036377   -9.73107122581832    0.57563516898879
H          12.99629360248913   -9.72800906892577    0.64162518943377
H          11.13975732569332  -12.15647299711050    0.35855377971601
H          13.37745573391889  -11.62907494998003    2.38130456798175
H          12.23448441649392  -12.96795419421239    2.41092695009571
H          11.88954262617169  -13.33643138195739    4.63351840271030
H          12.05327929314452  -10.46797434172499   10.41809426195133
