88
 SCF done       -176.234841370838          0.000793642224
C           2.99815247815669    2.64161821775773   -3.43848738273842
C           2.73488573894327    3.89156061929738   -3.90826235961287
S           4.03355852174270    4.47880257048606   -4.87987333901885
C           4.95556416070756    3.01181802483420   -4.65102922632559
Cl          6.48311629914906    2.80972346967138   -5.35319745729950
C           4.26970248311688    2.13661279262509   -3.86161279345025
C           4.49090070910913    0.79472911494064   -3.31443561244334
O           5.45233262343247    0.08182143049880   -3.48008454339030
C           3.23024610601307    0.48272363982886   -2.56144075170149
C           2.35268883067052    1.65091764068096   -2.60422882235517
C           1.17144620212816    1.83640253502293   -1.94099321922625
C           0.44160313567736    3.03841384008420   -2.06834701618248
N          -0.16082788129751    4.00925885291683   -2.16643296728228
C           0.56993301660430    0.91412575368662   -1.06015986484515
N           0.03812891972898    0.21247572920150   -0.32387923096250
C           2.87201336019572   -0.73735888915745   -2.09465097630135
C           3.70239164444196   -1.91418864959794   -1.98805032916695
C           3.12802713761097   -3.16460527772338   -2.22238434497959
C           3.89175906651561   -4.31510258565050   -2.15840834809047
N           3.21400409147486   -5.57495744593394   -2.34241095996643
O           2.17864578088562   -5.56183487302306   -2.97105660401010
O           3.70321635183253   -6.55808325384431   -1.82842221080746
C           5.26338081265842   -4.27515052502401   -1.84441871376090
C           5.80292787151840   -3.01863611652006   -1.53961508059863
C           5.04990149834880   -1.86926195264256   -1.60425691669706
C           6.09793803453512   -5.45060518881741   -1.89730973849425
C           7.13708508576890   -5.67681930938950   -1.06537514813423
C           7.96216135653112   -6.83023012146095   -1.18436520075965
N           8.93526347334701   -7.17512673933363   -0.27630789290277
C           9.22520690221269   -6.51143328503866    0.97130495660245
C           8.18343738622490   -6.83760245689327    2.03873226931640
C           9.59206722419196   -8.36526665639344   -0.63563464444325
O          10.49432464903557   -8.85429413452527    0.01593792235448
C           8.96266719543981   -8.76133477992756   -1.87559396331593
C           7.97387021636553   -7.79230726164143   -2.18787855755912
C           7.35052995721857   -8.17748547981251   -3.43428832942237
O           6.48329930810142   -7.65784171053803   -4.10670633066863
N           7.98823027719161   -9.38142027211390   -3.78214863110073
C           7.65471553473173  -10.07259973356947   -5.00381671821467
C           8.68187583734430   -9.81193726123846   -6.10312884750714
C           8.95069083283998   -9.73931164314242   -2.86722772850805
C           9.72719672707471  -10.92559330428047   -2.96544405220111
C          10.68556408142665  -11.23919392646477   -2.06248004980333
C          11.48493260711364  -12.42941174537110   -2.07368821264664
C          12.42921889819875  -12.65612459665208   -1.05380345782242
N          13.17938178545994  -13.72933934774875   -0.99966718282259
C          12.98819583245623  -14.66278754246190   -1.93420446725190
N          12.14071381017359  -14.54406649681996   -2.96160535622696
C          11.42544667560699  -13.44719318744650   -3.04052516231105
C          13.82260772440352  -15.83852016402044   -1.85129487775352
C          13.62462639846870  -17.04522378825600   -2.42190332119449
C          14.78269961606288  -17.99725865379783   -2.54509655877585
O          15.83605361665310  -17.92443347464781   -1.96458574622595
C          14.34542921027052  -18.96521582930727   -3.55678686896232
C          14.88424884832855  -20.02289167506487   -4.22785278367792
S          13.71095167212698  -20.71467441473422   -5.32264495178133
C          12.50334810846011  -19.57409913604483   -4.85352496005358
C          12.98018453027143  -18.71082375889407   -3.91747068880447
C          12.47680648248256  -17.60850029236039   -3.12086340021570
C          11.15478401905017  -17.32946853917851   -2.92620092805060
C          10.14784012613256  -18.00243521497017   -3.65047217732772
N           9.32129916188875  -18.52904825919143   -4.24638024483384
C          10.64635933010777  -16.44184023133310   -1.95555230714650
N          10.15313381040631  -15.79811118149226   -1.14374861321248
Cl         16.44887868088725  -20.65687591406621   -4.09549845283668
H           1.87019326079935    4.50689534432960   -3.75757207027890
H           1.83841865185498   -0.88669024748781   -1.80491556845589
H           2.08001769210821   -3.25279725367866   -2.47090676587846
H           6.84927411435717   -2.95259759318885   -1.28537494192038
H           5.49817474634484   -0.92588187828789   -1.34074902280997
H           5.86835114613887   -6.18778277482028   -2.65647073915809
H           7.33984267750543   -4.99760275462791   -0.24900363533368
H           9.29214981200467   -5.43220297588873    0.80693724489307
H          10.20493404295914   -6.87945905083251    1.28860072364440
H           7.18908100816392   -6.53255386060121    1.71983813199714
H           8.42934169059983   -6.32409214418509    2.96404878204902
H           8.17078443747443   -7.90798860419150    2.22818050523556
H           6.68078267540600   -9.68318204874082   -5.31320680802249
H           7.55665586457730  -11.14357473290545   -4.80559557666135
H           8.72780245296679   -8.74810547524231   -6.32264420866482
H           8.39447375574605  -10.34062267807288   -7.00769792430510
H           9.67272330906702  -10.14528157903554   -5.80138128734532
H           9.51309065728099  -11.58781471612989   -3.79139538158295
H          10.87722170425158  -10.55761605867486   -1.24351163950332
H          12.57470411781535  -11.92691234571555   -0.26652949269206
H          10.77574938746350  -13.38340809634470   -3.90400045163563
H          14.75188584887581  -15.69831312693906   -1.31098984128975
H          11.53299296183738  -19.61723330327334   -5.30685955814392
