68
 SCF done       -155.331255275292          0.000462995162
C           0.92560171116132   -3.77750474058388   -4.63274711932319
C           0.06547404418662   -4.15822814387499   -5.61553324451563
S           0.13553891960616   -5.86210681168232   -5.88160860727932
C           1.35078505984840   -6.07328315375048   -4.64472527249124
Cl          1.98621459655040   -7.59878088986553   -4.27771678401482
C           1.66266103984714   -4.87300416436511   -4.07609561931016
C           2.55949525747573   -4.38140225257902   -3.03330578315038
O           3.33625181361299   -5.02640518708651   -2.35559227829464
C           2.32774860918452   -2.92022702757919   -2.97239462077186
C           1.32416040880409   -2.55315925790608   -3.96541621595845
C           0.82368354565060   -1.31403909992046   -4.25878995292564
C          -0.14856779294465   -1.13949233187973   -5.26798849438909
N          -0.93725525080928   -0.98051342755004   -6.08525187739075
C           1.18413562368716   -0.10085729456864   -3.63788052239050
N           1.43108027768906    0.92029354319298   -3.17512395085268
C           2.95249872064869   -2.05474148245510   -2.12339309220293
C           3.93941229491119   -2.29271379174660   -1.13914997382187
S           4.66409331323699   -3.82935412580024   -0.71162725032850
C           5.66210137604284   -3.07882179514726    0.46532467599125
C           5.45823971886691   -1.69241135469374    0.53559109610277
C           4.47602741984813   -1.27161606773014   -0.37676979049432
C           6.25864092094050   -0.82801126331486    1.38037645531481
O           7.21924394893294   -1.14932345107072    2.03543063850961
C           5.80662073547913    0.66403861609372    1.39939238603596
F           4.51011674588663    0.78643426792307    1.73604778680499
F           6.50949826910842    1.37596125827955    2.27267846452492
F           5.95036882098372    1.24743463721661    0.19740262885908
C           6.56732793440834   -3.88639610365596    1.24107726237699
C           7.42155115860893   -4.81601826847416    0.62926649770705
N           8.23771479546570   -5.58076890760140    1.31083730619105
C           8.26488169014869   -5.43912184349849    2.63128366665220
N           7.47635512662972   -4.61460495264594    3.31219980988962
C           6.63344359481225   -3.86851963366719    2.64363447892409
C           9.22142635677838   -6.26422274469179    3.38618974295109
N          10.11471547716892   -6.95142001521582    2.68123495869876
C          10.98432536060568   -7.67335471155673    3.36302957964154
C          10.97427987302385   -7.74122362454931    4.74755222113631
C           9.98295764070043   -6.99878547491492    5.40050546892334
N           9.11978312071653   -6.25918509557708    4.70503730200074
C           9.83236431959134   -6.93395720201817    6.84178544957808
C          10.39486431241310   -7.77692709613171    7.72410832553089
C          10.20687729861013   -7.70768250886314    9.14179304885288
C          10.04549825647626   -6.62908296390685    9.94371883037745
C           9.52591846260248   -6.85277377247831   11.33604230015293
O           9.42639660212360   -7.91706125067294   11.89528469682071
C           9.14150313168463   -5.51841651285375   11.80185184052378
C           8.53457126647431   -4.97531371287503   12.89548172711621
S           8.41217345259102   -3.24039204780646   12.72754804146496
C           9.19141105849068   -3.26846154235794   11.18836929020017
C           9.51889929440523   -4.53781548169137   10.82567714336423
C          10.19645572066690   -5.19686312947093    9.72382909903416
C          10.98406328403045   -4.55047770224318    8.81123421254808
C          11.08579870698443   -3.14190219079430    8.80066763655838
N          11.17412870498326   -1.99870877790362    8.78375901834988
C          11.82017020509144   -5.17593287489578    7.86678076130890
N          12.54898732512821   -5.62961639741120    7.10510135917490
Cl          7.94923390527593   -5.77355404125278   14.26940367118226
H          -0.60489869469745   -3.56259442528052   -6.20279324138188
H           2.67316900405370   -1.00986894815841   -2.19200907171233
H           4.16157396358067   -0.25167801874989   -0.50671009946198
H           7.44319965527004   -4.92368798699261   -0.44801092713671
H           5.96672379998067   -3.25153618798469    3.23049626822462
H          11.71301463814711   -8.21395928667350    2.77279930601211
H          11.70737908027486   -8.31492100929799    5.28790944132591
H           9.16724413744010   -6.14877481558488    7.17570576905182
H          10.96112224705582   -8.62952944490833    7.37313358601304
H          10.14009811340202   -8.66281801894542    9.65650363910778
H           9.34323647046846   -2.34881648318404   10.65902690043166
