96
 SCF done       -191.429186125859          0.000373555766
C           3.47814604451096    3.03224443131642   -0.43410392586334
C           3.23766702748312    4.35918566323430   -0.25026401702840
S           4.67372733612010    5.19446856578911    0.21443063670786
C           5.62240308061261    3.72754069555080    0.16221154209927
Cl          7.27515691845922    3.73148386392537    0.53155320026748
C           4.84242858823583    2.66856697577957   -0.19740340241882
C           5.02739632617063    1.22915308780772   -0.40587944090833
O           6.05467112896323    0.60054563826791   -0.30401935461108
C           3.67786406077761    0.73093685055615   -0.83050872392879
C           2.73291699652878    1.84680958052024   -0.79993081186129
C           1.38135027695650    1.81308016528434   -1.00788675245127
C           0.59902358480417    2.98572981568839   -0.92417697898188
N          -0.05064576036391    3.92886505936343   -0.86172068070003
C           0.61120126223771    0.66654734724652   -1.29182519189870
N          -0.07900564198965   -0.22485725492515   -1.50832677372323
C           3.38655317288319   -0.49378523946225   -1.33582305250677
C           4.19281586098216   -1.68781785738079   -1.37356076062309
C           3.96672431136751   -2.59863986602870   -2.41045664482441
C           4.69200777924777   -3.77046009482257   -2.49745841068027
N           4.33191564242642   -4.69106084883084   -3.54946585168378
O           3.84620732348822   -4.22022026614977   -4.55397278626708
O           4.50045781571113   -5.87401309239634   -3.34569163611620
C           5.68066785586855   -4.10106821844768   -1.54935787372978
C           5.85689884843247   -3.20091652871278   -0.48943035417815
C           5.13467848965005   -2.03420766224056   -0.39358634416261
C           6.50657613960650   -5.27308503212372   -1.68960267987884
C           7.00999370495993   -5.97721995544764   -0.65187549753085
C           7.81586661924902   -7.13281529942556   -0.84890977190459
N           8.23588659092436   -7.95946685426606    0.16734925019770
C           7.92003284064404   -7.83450723357031    1.56948508854417
C           6.50464801499186   -8.31618023552872    1.87927175299174
C           8.97698333032162   -9.05183927249584   -0.31531504487287
O           9.44674576252799   -9.91311004238008    0.40275457721625
C           9.01864038939709   -8.85213149324336   -1.74623213361852
C           8.30647213109103   -7.65945589883943   -2.03838964243057
C           8.36505878562105   -7.44568661653166   -3.46727345050172
O           7.94604919870339   -6.55380325598024   -4.17644912015963
N           9.09480626747460   -8.54602928617722   -3.95224308294205
C           9.31262597933143   -8.72472371685697   -5.36732356746226
C           8.31571484803064   -9.71012219495114   -5.97285329112112
C           9.48514645541851   -9.39221283990145   -2.94153657194459
C          10.22684481267333  -10.58674974452883   -3.15799472403094
C          10.63332708357495  -11.38057465684531   -2.14186293876121
C          11.37965487674370  -12.60548115098966   -2.28144884954862
C          11.97178327768379  -13.16406981906774   -1.14621138345561
C          12.70450403526220  -14.33538180900477   -1.22614507494567
N          13.25653772473406  -14.85240866461345    0.00000802759953
O          13.41424455206340  -14.07219692796023    0.91302827203620
O          13.52947831595777  -16.03563292848192    0.05260231779038
C          12.87084643299515  -15.01871913218720   -2.44516779964040
C          12.25764251409929  -14.45703458496947   -3.57262587633617
C          11.53880892780773  -13.28767272037737   -3.49818300000214
C          13.68424785580754  -16.20555513351084   -2.58221509380176
C          13.39203942567276  -17.22315338376793   -3.41654003282904
C          14.16310398124475  -18.41875036151006   -3.53116369856581
C          15.48867592820974  -18.62960549415892   -3.33110145224953
C          15.95630901076223  -20.04318786248740   -3.13764400185688
O          15.32008430039199  -21.04264689494157   -3.36455219215581
C          17.30816472218727  -19.90876029788203   -2.58590595532945
C          18.27488368465879  -20.73036042278152   -2.08799792570249
S          19.67191128746312  -19.80209954506940   -1.59495321486841
C          18.93758607182580  -18.31774665550432   -2.07903119157553
C          17.69090615368971  -18.52699575146726   -2.58047166404919
C          16.62204981915217  -17.73559606723099   -3.16086668442951
C          16.78336079222116  -16.46045877886351   -3.63426783415748
C          17.99441665821371  -15.75797932072942   -3.45872310115648
N          18.96740159737299  -15.16749299814922   -3.31516447047842
C          15.82886793429505  -15.74610727784238   -4.38042993431363
N          15.09896054607750  -15.12389601912738   -5.01141719410740
Cl         18.23352144959666  -22.41515833435583   -1.92458086506003
H           2.32258559095137    4.90681555578938   -0.35819705126387
H           2.42194830191343   -0.60722400948719   -1.81738524814320
H           3.21911817164826   -2.39785521470401   -3.16476901252038
H           6.60524648276512   -3.41936772528020    0.25623457206103
H           5.28973183888891   -1.38640173502940    0.45211369148354
H           6.71861088974640   -5.61273724039623   -2.69521361720273
H           6.76066465998733   -5.70780670271906    0.36479807438062
H           8.05769841492324   -6.79627352691224    1.88456088837531
H           8.64373421081337   -8.46077219334100    2.09880053773462
H           5.76539579251695   -7.74497603265610    1.32190364809170
H           6.30361587319431   -8.20942834775904    2.94166886625707
H           6.40385643288279   -9.36466282745656    1.61049190341577
H          10.34250881124505   -9.04800306254003   -5.54272293589275
H           9.17170519270060   -7.73976211196526   -5.82113933489888
H           8.39477515996208  -10.68777812694098   -5.50194849702099
H           8.50353309687019   -9.81640200358197   -7.03765152648229
H           7.30246547460316   -9.34171859083036   -5.83387444248139
H          10.47220029097497  -10.83312683887276   -4.18056035213769
H          10.40653230731803  -11.08279905125275   -1.12649835749006
H          11.86182470147143  -12.68320059846794   -0.18487280910835
H          12.40060524022658  -14.93950042291505   -4.52635707595866
H          11.08297098602488  -12.89876343911413   -4.39495404771716
H          14.54516257713619  -16.29213046019346   -1.93309805033884
H          12.45469884394127  -17.21544293204698   -3.95688645633697
H          13.59975358565667  -19.32086829280908   -3.75384311099577
H          19.47323791217804  -17.39847291378156   -1.94831514509242
