62
 SCF done       -118.192251293653          0.000471910716
O           2.09558881038576    1.82958846594318    0.09703952849227
C           1.12343018110629    1.87994338467208   -0.85188445725349
N           1.04200963493426    0.79189125816127   -1.56040217223619
C           2.01195548739645   -0.03695574544418   -1.06200709706187
C           2.65200596042845    0.62105608728017   -0.03911178399384
C           2.24842977336003   -1.37183045647420   -1.59448279526618
O           3.08828077533980   -2.13344058738920   -1.18911005350579
C           0.31298434630190    3.04262972813385   -0.99428940451209
S           0.54887269641292    4.42921922223456    0.03109541767058
C          -0.74375082358562    5.28116966072084   -0.75440132196119
C          -1.30576215410313    4.49630186899063   -1.76389166169176
C          -0.70368828632989    3.23179386911667   -1.89358228971190
C          -2.36088256826381    4.96357319413739   -2.56229384644655
N          -3.21826712740884    5.37671554614702   -3.20432484868936
C          -1.15840434782995    6.58934543292126   -0.39984267667279
C          -0.57662922272189    7.33453790825007    0.56891655678555
C          -0.93188165017765    8.65148572177405    0.97408706534267
C          -0.45887424425909    9.28747995341923    2.13057668025403
C           0.43752780993772    8.67598869093600    3.14580982852488
C          -1.01825208080908   10.60035449904028    2.24074607032071
C          -1.85813227705752   10.75706283868617    1.14197732887469
C          -1.81492505946141    9.56785980814939    0.30878754354564
C          -2.52478410293373    9.59578142961334   -0.86456195594723
C          -3.28900574312245   10.74580971612985   -1.15624784466129
C          -3.29038119668064   11.80377556441689   -0.29565393178769
O          -2.58399167716222   11.83211129423508    0.82554660145544
C          -0.85101020333694   11.62690868226190    3.22368467712441
C           0.11609433916206   11.73548912446757    4.15813521849328
C           0.19797893569363   12.81233367269594    5.09213798191080
S           1.58265727564392   12.93502273624863    6.14085747883516
C           0.98394566996233   14.38438579652752    6.89056573030479
C          -0.24643841835705   14.73145770988923    6.33685093719373
C          -0.67809003161181   13.84621026863040    5.33127701214358
C          -1.02647935723138   15.84102956148970    6.70470573846335
N          -1.71372914359768   16.72561785693879    6.95407686039399
C           1.76452000571351   15.01221981650741    7.89805609720714
C           1.44372345021456   16.14298783031912    8.56273615693169
C           2.29771538032602   16.71917081607636    9.55063683417937
N           2.06150747846193   17.80447933855379   10.22927915020477
C           3.14582233706700   17.97735590303168   11.04312083573643
C           4.02297894981898   16.94326606521520   10.80704996148795
O           3.49678159163214   16.14968772856648    9.87162857824750
C           3.26438912815384   19.09624371049927   11.96801531395118
O           4.20354542481785   19.28697257063467   12.69768079153205
H           3.45598291845720    0.34240738972047    0.61010795408644
H           1.56827338770741   -1.62747836703180   -2.42555610099529
H          -0.99410378963400    2.48583496445541   -2.60997274920195
H          -2.00846140810426    6.95368273378392   -0.95528925897965
H           0.24749181087316    6.87991866237498    1.10503341207278
H           0.46580172634005    7.59469302391139    3.04902897562970
H           0.09021229371393    8.92382419361356    4.14698695460450
H           1.45432568622462    9.05475210240508    3.03309197604153
H          -2.51723282984308    8.78658263167829   -1.57559172257114
H          -3.87189209246527   10.79358067188643   -2.05967062120897
H          -3.85445340551370   12.71019533304445   -0.45711367242833
H          -1.58930183559887   12.41564972845024    3.15359364687651
H           0.91149753803985   11.01059265286856    4.22054803586359
H          -1.61053716335269   13.97489604734461    4.81205311280063
H           2.70147900219858   14.52115414119955    8.12981692213732
H           0.52724104063385   16.68183256759975    8.38488024823371
H           4.97944050073768   16.69827475705377   11.22132392711410
H           2.39159089322684   19.77122922276753   11.93665912634864
