111
 SCF done       -183.666276241791          0.000246552538
C         -10.15904516518661   -7.03131024731843   -3.94796476646338
S          -8.73682566845598   -7.08664042396370   -4.89043095496540
C          -7.73084754169666   -7.40593548390509   -3.51577418937566
C          -8.50169981481318   -7.46488281535189   -2.35515829266074
C          -9.89764884227163   -7.24736182026154   -2.61731028961835
C         -10.82628059204210   -7.27670915001886   -1.53316492464412
C         -12.19537791376220   -7.06818201645644   -1.79155377493389
N         -13.30978400033358   -6.90293304619225   -2.01197392951076
C         -10.36541294619389   -7.51189681118925   -0.26132926604510
C          -8.99605039818154   -7.72740866578332   -0.01548585907395
C          -8.08102988391849   -7.70541611858116   -1.02882859151931
C          -6.31634168936061   -7.58084644564172   -3.64701068514448
C          -5.65917144007071   -7.52309332462902   -4.80827106775797
C          -4.18601070811473   -7.70733244155570   -4.99480157342003
C          -3.46903787600742   -8.24883827256450   -3.80016042003991
C          -2.49003019593652   -7.67964189936881   -3.09589032315884
O          -2.03234724418583   -8.40411315547009   -2.01688486587572
C          -0.69058723746342   -8.30941302660800   -1.58216697047694
C          -0.51682782911049   -7.41391051033664   -0.34802980005778
C          -0.67777044154170   -5.93050206106115   -0.68709641442482
O          -2.05809489708817   -5.68132291270523   -0.96673053397367
C          -2.34458857495572   -5.29378269968030   -2.28494396696817
C          -1.92217800468536   -6.31301180714584   -3.36064138419738
C          -0.21023746520346   -4.89836231312381    0.32891556241053
C           0.44927620672829   -3.77572969395932   -0.20075292197581
O           0.74240039211410   -3.80501878533202   -1.53646949885317
C           1.42378197267034   -2.71233042123635   -2.12138090942396
C           1.61269582929672   -3.03149110198502   -3.59676392554148
C           0.75872041615861   -2.70431163695269    0.62021235052321
C           0.39432795664879   -2.69263776339539    1.95581926073915
C           0.72871080460513   -1.49467463209025    2.80082812164788
C           2.23473131918242   -1.39046091797943    3.04564299931960
C          -0.26924976015474   -3.79553847987217    2.49746819439667
O          -0.73922378534823   -3.65523945817893    3.77940511657972
C          -0.37334989713418   -4.58697689488128    4.78732816335083
C           1.11925557422648   -4.87371534539728    4.83309252685034
C          -0.54147191743137   -4.91054639587448    1.68603698521298
C          -1.23799298975605   -6.07453532211154    2.24930770268154
S          -0.37780150129232   -7.44648699774984    2.88614063402447
C          -1.87713617905645   -8.29229525201906    3.19430616568956
C          -2.95400473413815   -7.52441138270635    2.82924888957453
C          -2.58804217702353   -6.26164113206340    2.30586376288818
C          -3.57962695128312   -5.24341509763129    1.84039304846258
C          -4.96712241707983   -5.87190251295297    1.67944670788675
C          -5.99051126223803   -4.76857512092701    1.45058849563156
F          -5.60660078665138   -3.92567572363734    0.47904316510176
F          -7.19212920083881   -5.23378012671761    1.08020411878969
F          -6.18938497942160   -4.02019387321969    2.54687418092534
C          -5.29686357805067   -6.70469239115114    2.93190931983648
C          -6.66649801837049   -7.15956754165553    2.97696657991515
N          -7.72769221644590   -7.57879822568892    3.03653958220199
C          -4.38423956203635   -7.94175524647625    2.95895668426165
C          -1.88182227098293   -9.67917188879781    3.57198594048083
S          -2.78443112679282  -10.79639250961771    2.60064514618250
C          -2.22448729119514  -12.17483341464093    3.47647183317125
C          -1.32832961035683  -11.78794722484638    4.47209622936402
C          -1.16351267529215  -10.36158892099092    4.54402506433082
C          -0.37102361405862   -9.82170065355513    5.59931081331479
C          -0.35897069946577   -8.44381406798730    5.88972874459501
N          -0.37030839851865   -7.34661015225977    6.22704500730575
C           0.32098554629683  -10.66976838973351    6.43320808532023
C           0.25726887826284  -12.06303034721733    6.26152718506547
C          -0.56172226535656  -12.61766185472225    5.32050167602877
C          -2.73885541281359  -13.46515008442332    3.10379184779011
C          -2.84354739900124  -14.53465132312896    3.89038118854834
H         -11.10658535031962   -6.84435022878063   -4.41241462832171
H         -11.06020231901052   -7.53259272561339    0.56486102953313
H          -8.67964737435893   -7.90161887436101    1.00074156003641
H          -7.03414578386612   -7.87447282673983   -0.82623553317200
H          -5.77294698914270   -7.77454667009795   -2.73251557682496
H          -6.21103488261059   -7.32037881395416   -5.71812799346036
H          -3.76491936595949   -6.75230537392703   -5.32075307727304
H          -4.04500602291411   -8.40941320267599   -5.82624479146176
H          -3.78538246519489   -9.23492824944057   -3.48888878942236
H          -0.02299583396392   -7.99541651317651   -2.39231802884194
H          -0.41752979790944   -9.33350101541890   -1.30042158894722
H           0.46940604980664   -7.59051261673242    0.08177155586669
H          -1.28651745219353   -7.70884868764534    0.36135537656892
H          -0.08162982821329   -5.73353663277150   -1.58319597134135
H          -1.86938979028498   -4.32699013088637   -2.51060532563096
H          -3.43063258665099   -5.16776432347075   -2.30741257555952
H          -0.83220357444946   -6.35576709934515   -3.41590498569055
H          -2.27676877767591   -5.94445242946745   -4.32104670071143
H           2.39923915412920   -2.57126476200840   -1.63649633838306
H           0.83351543493683   -1.79307438527154   -2.00667141880641
H           2.13438005738795   -2.21471162587091   -4.08672357352446
H           0.64659416321200   -3.17322338753212   -4.07416771265608
H           2.19380921780976   -3.94296254298973   -3.70933707436054
H           1.26475890872279   -1.83819370080938    0.22490782393736
H           0.20663810213112   -1.57492158559830    3.75326609739959
H           0.38346807215863   -0.58958913647171    2.29597808096275
H           2.60287475059304   -2.28707145431662    3.53859192082150
H           2.45394282384514   -0.53294945201674    3.67739473541107
H           2.77369353948470   -1.27452351675342    2.10810576446640
H          -0.93227690826176   -5.52167952636185    4.68155925727131
H          -0.69459141545276   -4.10759392141484    5.71524131770528
H           1.45573954621489   -5.29363850983211    3.88620524151170
H           1.31135583917679   -5.59337030957358    5.62260086968117
H           1.67735385702012   -3.96203953370487    5.03214530025245
H          -3.24109702180924   -4.83259043700004    0.88659183152382
H          -3.62562200855031   -4.42217609794850    2.56400660374083
H          -4.98585606675616   -6.51280678142962    0.79113643228421
H          -5.11669263779731   -6.08915215264900    3.82277256565680
H          -4.65547687372276   -8.60172006917762    2.12778996841504
H          -4.53679933627571   -8.50099171610353    3.88554375652075
H           0.91821285889840  -10.25543525145106    7.23190833619311
H           0.85122346220990  -12.69440198623511    6.90437788933564
H          -0.61250235874824  -13.68732014427584    5.20083376861639
H          -3.11371997930538  -13.51933062613011    2.08885199779003
H          -2.55855326363425  -14.52512118137860    4.92721221730309
H          -3.25252562116473  -15.45604401736009    3.51475340510448
