87
 SCF done       -176.720353743410          0.000337187912
O          -2.86021065884735    3.72403034473991    4.85466592306008
C          -2.38511478596777    3.19003279554575    3.69524558339975
N          -2.60595414621869    1.91470034716752    3.59580043649710
C          -3.26125525222797    1.56582897982774    4.74077443702916
C          -3.40978244440168    2.69973908409023    5.50887889834434
C          -3.69249560759047    0.19622046407613    5.00482434241388
O          -4.27743493312637   -0.15594486651704    5.99538137218615
C          -1.74120056551443    4.03324084804781    2.74257462337458
S          -1.61485035719116    5.74556279685417    3.02924617155688
C          -1.17406741677883    3.71051701796535    1.53380404374274
C          -0.91994663212761    2.49309206624111    0.73519251069517
O          -1.17850415269717    1.34026381207335    0.94235789714926
N          -0.26720755314007    2.96439582822805   -0.40582407106272
C           0.21201136775023    2.08271724883698   -1.44987409763335
C           1.62021956284736    1.58439122104201   -1.14479921168048
C          -0.07673079808787    4.33355809111494   -0.42947415436731
O           0.45043877523437    4.93703569766823   -1.33567848369654
C          -0.65644677978771    4.82461698211870    0.83410115804305
C          -0.80673770632830    6.02759770894450    1.50016104134017
C          -0.43509822096082    7.35420088930315    1.16132186184421
C           0.09824457061979    7.70019748474936   -0.03844536930341
C           0.46509637507444    9.03286595189930   -0.35210276913930
N           0.92208652805105    9.41842441028716   -1.58797974512014
C           1.02155357911982    8.58692733835316   -2.76461520576117
C          -0.34055823484486    8.37009605811613   -3.41808146903075
C           1.21736153098796   10.79151305009931   -1.63558247274325
O           1.59459205142677   11.36703875781986   -2.63452740822955
C           0.94919964990450   11.26116294841690   -0.28973723583421
C           0.47015192457527   10.16342007861661    0.46587726351890
C           0.18148470322998   10.63541086755380    1.80243164483496
O          -0.26035359010367   10.07549929093305    2.78661441470190
N           0.51420556586245   12.00000391279272    1.76695383798187
C           0.38387865085253   12.83465668610633    2.93655161260641
C           1.72609558853634   13.04874638959180    3.63208300266006
C           0.97934801196563   12.38415988820465    0.53224065616434
C           1.38072286754088   13.71084650921108    0.21645355481454
C           1.89655966185028   14.03167364125861   -0.99005105544603
C           2.30293877159540   15.34231592119088   -1.41835626077877
C           1.62454669386772   16.55976831807933   -1.18491373929544
C           0.30977926940053   16.66373701269205   -0.51551076389237
O          -0.37778744205693   15.79500513311422   -0.06761689909899
S          -0.20345944772244   18.38311255893117   -0.47244173441010
C           1.27650047684012   18.94864649839661   -1.30644788682241
O           1.50784541389055   20.10491217114254   -1.49262575685508
C           2.10208407563451   17.77836522370788   -1.67572863334070
C           3.27319825822596   17.90600478835955   -2.44964392268488
C           3.91811475946780   16.68673682564221   -2.71601955553634
C           3.45062454041312   15.47772400185650   -2.21850547931047
C           4.38830158959194   14.41712400242030   -2.66071093233973
O           4.44089207788666   13.26435489141156   -2.37358741120255
O           5.30573591974125   15.02032214811924   -3.49150290826174
C           5.08854669610685   16.37062310102086   -3.58194859204250
O           5.75678791020437   17.07534243723836   -4.27090413912537
C           3.72150800155915   19.18234603560266   -2.95550590448591
C           5.00451437118196   19.56366460201947   -3.05075874599455
C           5.36983401306380   20.84201817779734   -3.58478903085121
N           4.58295424536210   21.75113002858382   -4.08366734198809
C           5.39840020123845   22.77482087591981   -4.46861803900196
C           6.69633614092177   22.41820807325762   -4.16848906818803
O           6.67862302140532   21.20859743064140   -3.61308436297454
C           4.89047571353609   23.99796714900245   -5.08019794577895
O           5.57562125050117   24.92229244413738   -5.43208015298854
H          -3.85879253285528    2.87253657928674    6.46545805770933
H          -3.42304234668366   -0.49676656267274    4.19043343496726
H           0.20014710756288    2.64682780401835   -2.38532342603979
H          -0.48292404537093    1.24230985909804   -1.51139166904191
H           2.30891948539842    2.42279344250734   -1.06832821381956
H           1.95762303793570    0.92657104253959   -1.94041916942166
H           1.62739550655960    1.03256091856974   -0.20784838268266
H          -0.60837868581331    8.10975884962607    1.91693229677226
H           0.25788500129200    6.94168049537486   -0.79064763490344
H           1.47534475423439    7.62904488323664   -2.49989963547369
H           1.68246423422621    9.11767215667829   -3.45512050388731
H          -1.01849204883143    7.85887855584815   -2.73849507986992
H          -0.22360573310777    7.76475439554724   -4.31211890358547
H          -0.77868933396238    9.32528188652132   -3.69783230600167
H          -0.29659113331410   12.30660824047157    3.61041059079168
H          -0.06950991922617   13.78836844161313    2.65357684137021
H           2.14181036645908   12.09198474054616    3.93841278032788
H           1.58851431434376   13.66586471210515    4.51561116082850
H           2.43737087994501   13.53774780268877    2.96971281084795
H           1.27649986518400   14.45759585915025    0.98873056999210
H           2.08920601054293   13.23878601213005   -1.70420567359590
H           2.95958640590474   19.89652979526482   -3.23567455467996
H           5.82764520075737   18.94939041730454   -2.72023230647172
H           7.63185541015303   22.92189721643969   -4.30241058562648
H           3.79244054747025   23.99635198456909   -5.19003882984132
