86
 SCF done       -171.662468026869          0.000623970373
C          -3.82946912607996   -0.50877108176919   -4.27575223789138
S          -3.81415486538192   -2.15603183411609   -3.83872198340709
C          -3.69184886847181   -1.79463700294130   -2.14509693592871
C          -3.66676750239825   -0.40724489046753   -1.94453131122533
C          -3.74530874402981    0.31864149830633   -3.17887791242457
C          -3.73121658201242    1.74462885170323   -3.15370063851829
C          -3.80580756145074    2.46007778686825   -4.36637163737388
N          -3.86412850684034    3.03436574424278   -5.35799655904935
C          -3.64647165993247    2.39482623136505   -1.94558336131264
C          -3.57437397091915    1.67103881820755   -0.74218968453562
C          -3.58351052121512    0.30293471781287   -0.73076089373975
C          -3.63059952193964   -2.80238308594818   -1.15246348940918
C          -3.66225870663539   -4.13226754888455   -1.41531181221503
C          -3.61364831493822   -5.20810618979380   -0.49033766824222
S          -3.37612736605501   -6.80547313569910   -1.14661194195025
C          -3.41976702494955   -7.52405675260269    0.43543227604277
C          -3.59341195582981   -6.55380283558135    1.41294063429298
C          -3.72679371211339   -5.25759597861684    0.89260559853853
C          -4.01954038418423   -4.07842903913604    1.76846612507174
C          -4.51074218747073   -4.51763946121458    3.15224845503397
C          -4.59420669933414   -3.29018151902768    4.05222613484782
F          -5.24648837635593   -2.27971788109844    3.45008305535935
F          -5.23771400428370   -3.51791045009214    5.19988583753785
F          -3.38006929585011   -2.81187066798653    4.36952081330151
C          -3.54381523897628   -5.56830119932780    3.71845257814749
C          -3.82384270747156   -5.91028297735690    5.09642423707602
N          -4.03163625766983   -6.22992130028740    6.17265165584522
C          -3.63661737892142   -6.85065262965770    2.87723146865749
C          -3.28636907738265   -8.92907957069553    0.56714524291081
S          -3.25608129299742   -9.76487795404560    2.09033099489552
C          -3.02883790299923  -11.29110471364704    1.30333191017345
C          -3.00075101727474  -11.15870240057878   -0.08219033330093
C          -3.16395619872171   -9.81977678982154   -0.49574867389946
O          -3.21833402366539   -9.38801057571035   -1.80032471727418
C          -4.49820074483650   -9.53203184650186   -2.39837298351022
O          -2.83085724468831  -12.27721437778908   -0.81070929576327
C          -2.29718311675633  -12.18545885745312   -2.11888934126918
C          -2.91145204938660  -12.50275851279139    2.01216503374954
S          -2.76357002246581  -14.01729964776017    1.20176016005370
C          -2.75777845214860  -14.86334641170331    2.73121923850990
C          -2.84067627003207  -13.96185004137780    3.80903495259888
C          -2.90855491079841  -12.62506010430065    3.40037231749319
O          -2.96370226240380  -11.51758042548153    4.21911191219430
C          -1.69072243146528  -11.04032314034946    4.62630733701599
O          -2.86660041601866  -14.46233948604495    5.06169024065522
C          -3.40988000372587  -13.67619853378655    6.10764416360609
C          -2.75885551769075  -16.25822083604075    2.91346430559857
S          -2.89228724830345  -16.89097186176801    4.52812476717613
C          -2.94488878168028  -18.55268625480461    3.97911056918197
C          -2.85184187296480  -18.60043956513884    2.61725033324949
C          -2.73053289424161  -17.32442720210638    2.00000363621291
N          -2.56770231224470  -17.22828101126899    0.61551669335380
O          -2.34189964061479  -16.13202646940916    0.11536299107387
O          -2.64355310998310  -18.25786854585077   -0.03303623762646
N          -2.84723048181634  -19.84688354538325    1.86007947886654
O          -1.77366617218909  -20.36634404943476    1.69079789276210
O          -3.92247620522708  -20.28906020701798    1.54506446048669
C          -3.06416000977779  -19.58494468235993    4.97700038855586
C          -3.18035037177636  -20.89498706098929    4.77486984007562
H          -3.89835421843587   -0.22463574348821   -5.30704075135488
H          -3.63685546259257    3.47440852462405   -1.92023192951578
H          -3.51268280851946    2.21660024996543    0.18695423800770
H          -3.53110571417072   -0.23237408766227    0.20471533559236
H          -3.53263122904609   -2.44032191445976   -0.14238426182478
H          -3.70323315188101   -4.43763334832186   -2.45416089870718
H          -4.78287160908330   -3.45545475014674    1.29597301018174
H          -3.11420576888649   -3.47274696322189    1.89219732911400
H          -5.51991144254103   -4.93807303043016    3.08696686645235
H          -2.52355763536881   -5.16636695035274    3.67251343939544
H          -4.56153443441995   -7.38456748513279    3.12027594291116
H          -2.80983848828582   -7.51219848427148    3.14698431315070
H          -4.38273778252105   -9.20912739868930   -3.43053145706077
H          -5.23957077033619   -8.90096902449558   -1.89865525689177
H          -4.84135597889151  -10.57026512970180   -2.36785261518443
H          -1.90758445893487  -13.17869030404355   -2.33638293246941
H          -1.49413760875799  -11.44767367878896   -2.17036251042809
H          -3.06815245317647  -11.93194469962433   -2.85031900650836
H          -1.08993165974882  -10.72956598086037    3.76629860901602
H          -1.13697201520060  -11.80199754229005    5.18435378737771
H          -1.88593643506648  -10.18194671493080    5.26567074953084
H          -3.66917062167099  -14.38096866506094    6.89624259595573
H          -4.30034975521853  -13.13857412673838    5.77875510430244
H          -2.67714546007254  -12.96182738733887    6.48880867911996
H          -3.05604837161033  -19.20125566831975    5.98920738580177
H          -3.20681634671674  -21.35382789439840    3.80378785744136
H          -3.26147922095617  -21.56722330733773    5.61084829642241
