92
 SCF done       -168.586477256646          0.000406684217
C           0.02199853679799   -3.06235572669360   -4.94080395173404
N           0.97131129381510   -3.65998589209590   -5.57868384175645
C           1.97338023589878   -3.85319247068155   -4.68502612825798
C           1.63378638677960   -3.33458907098089   -3.45647955501738
N           0.34352293110183   -2.83519492968810   -3.61561670888729
C          -0.36407406044362   -1.98782959733209   -2.75283653041779
O           0.16078326541870   -1.19250857452792   -2.02644150788362
N          -1.74074685355511   -2.14362199695814   -2.84190484556705
C          -2.66675152212719   -1.22674233019877   -2.37181330681893
C          -3.88422926103331   -1.78982557334590   -2.56439851556448
N          -3.74574516358548   -3.03857136908739   -3.11061207540779
C          -2.48304548626655   -3.23047980017290   -3.26879886773973
C           2.38365987254254   -3.37289582763997   -2.23851903943426
S           4.08994270263937   -3.69061142931422   -2.33568393596865
C           4.26133664676222   -3.64598675640374   -0.60737043016713
C           3.02476194230821   -3.39378352977677   -0.00797707452532
C           1.97441515372491   -3.24637451209330   -0.93391494719145
C           2.79886991020911   -3.29980819100178    1.37451735808913
N           2.57414828427521   -3.22033614223013    2.49760355268461
C           5.54124399186138   -3.86690031152333   -0.04599221976704
C           5.83535167095377   -3.84190138777465    1.28249412591388
C           7.13895024078760   -4.09770910717415    1.76644966309637
N           7.47811150052768   -4.07265019897542    3.09667887095757
C           6.61726719478498   -3.71790636118061    4.20009182132911
C           6.41774337010305   -2.20834775542951    4.30455403167121
C           8.83663285059716   -4.39127659411213    3.30231903780549
O           9.36311028791894   -4.43632493353800    4.39295301145902
C           9.34414521808022   -4.63220846661840    1.96862244165714
C           8.29195131765190   -4.44341023371968    1.05147982557699
C           8.81626607574183   -4.71127429911183   -0.26872635051401
O           8.29751022155070   -4.68002552971080   -1.36835230605061
N          10.16319823375595   -5.05987633100034   -0.05792390663443
C          11.00787654456372   -5.33688159790023   -1.19570671819835
C          11.91923022800354   -4.15885645323859   -1.53057505916731
C          10.49870782639903   -5.01592477647720    1.27854599804125
C          11.70926089216944   -5.31269942350127    1.94130206344499
C          12.89943543801684   -5.74834577541284    1.43940917973155
C          14.03218375009032   -6.04296777623661    2.23288244866228
C          15.23847224571746   -6.51356567746951    1.75001607222017
C          16.13810983966554   -6.71129936579176    2.83140097123199
C          15.39918608039449   -6.31639241985815    4.04776566246958
C          14.15203942456252   -5.92528896910291    3.68137646107189
C          15.87689689748982   -6.34342520333429    5.36326947921743
N          16.23752711972563   -6.35376089443897    6.45379073656221
C          17.42968877758090   -7.18326098359762    2.77453187134443
C          18.34533950306299   -7.35951024228775    3.85457373290493
C          19.53688259304839   -7.82831728563387    3.36092441978421
C          19.40056408696027   -7.99352184234015    1.92508712260117
C          18.14659282338291   -7.61083574676630    1.56136750901778
C          17.64750846634155   -7.65310505125803    0.25664653216878
N          17.26410295871434   -7.70274828756224   -0.82584925623242
C          20.68863519552223   -8.15098690619581    4.14288446258509
C          20.76968613617984   -8.55749438510108    5.45632764412582
N          22.05443082867738   -8.83773279555294    5.78980187256469
C          22.76335105794227   -8.63414673554549    4.72916886197418
N          21.99343597547583   -8.22381742991321    3.65913358382238
C          22.47841492281904   -7.65342087338018    2.47659776546008
O          22.00864816562662   -6.67380436706185    1.97136499772269
N          23.58004721775115   -8.32181821785393    1.95418732816706
C          24.43874367596176   -7.79295227791912    1.00539213298521
C          25.31339249744745   -8.78151127393953    0.69774379660744
N          25.01019722890635   -9.91622468753895    1.40252914608723
C          23.99127217885915   -9.62885943936942    2.13573262036445
H          -0.89894632161521   -2.73175575190806   -5.37721225865427
H           2.87812293395301   -4.35513989924847   -4.96312810183771
H          -2.35468816596909   -0.28546948181343   -1.97114821592470
H          -4.85520483322715   -1.39481628133484   -2.34669516391159
H          -2.04034320749114   -4.12966940296007   -3.64749002594021
H           0.96194512198227   -3.05980791048889   -0.62566199065664
H           6.33320892379323   -4.07347943180368   -0.75519989347741
H           5.06238919861005   -3.63049343402081    2.00493045100135
H           7.11690094174488   -4.08573723185752    5.10062381143697
H           5.65566902310999   -4.22739953969173    4.09518528278525
H           7.37648313702706   -1.71345262042782    4.43974687591464
H           5.78528882390038   -1.98298148220756    5.15816778264488
H           5.94422058808479   -1.81402463829927    3.40835718199251
H          10.32520584179972   -5.51481014409512   -2.03238759646256
H          11.57924888033142   -6.25098061353278   -1.01776925062712
H          11.31851367686941   -3.29224969359361   -1.79592244254273
H          12.55299323017686   -4.41340468515863   -2.37548977491420
H          12.55053511814564   -3.89411672600754   -0.68534838257877
H          11.62476868403746   -5.17355138498898    3.01154833028798
H          13.03833227155272   -5.90453756917649    0.38069250898229
H          15.46806064539639   -6.70553546896645    0.72023047119249
H          13.38003234858175   -5.58483837187381    4.34566870181914
H          18.13732799271125   -7.12719192255706    4.87963172968828
H          20.15252801934483   -8.38190756516636    1.26350593136397
H          19.97450190815940   -8.67644238764241    6.16353993474571
H          23.82988315897029   -8.72425441927790    4.67575065493158
H          24.33466470063737   -6.78201797199218    0.67198456201162
H          26.13928474178969   -8.76691485142085    0.01656646413915
H          23.48799505202752  -10.31669672651350    2.78509128878322
