74
 SCF done       -138.983412041394          0.000786143412
C           0.98105557443340   -2.29908231563366   -1.03848901289282
N           0.25950183655406   -1.84383040243421   -2.02053847166955
C          -1.02866706759384   -1.73272319483482   -1.69809378539768
C          -1.35556498142725   -2.11113228637008   -0.41270482622123
S           0.06739527206806   -2.63926088145964    0.42834598845182
C          -2.61515048567699   -2.09576796896005    0.18598599979351
N          -3.65508126065848   -2.08309228939152    0.67138374837159
C           2.38321323250720   -2.50780119859914   -1.11903771840868
S           3.30290472835803   -3.11700289280973    0.22378650846797
C           4.78301167095610   -3.04727710607493   -0.69160146946165
C           4.53235497678526   -2.56797478707626   -1.98020843453888
C           3.18171006489475   -2.26765455244406   -2.21441402909166
C           5.53040124054355   -2.40207376640843   -2.95864218842791
N           6.31108683657819   -2.25945830454467   -3.78538187206363
C           6.03271671322235   -3.42523394988778   -0.15263334397610
C           6.18512407568339   -3.90102864000563    1.11260829724318
C           7.43582078883046   -4.26353318877048    1.66185262328115
N           7.59895050132066   -4.75141778530915    2.94430314527144
C           6.56608198207926   -4.92427213436449    3.93657764262854
C           6.18612860052539   -3.60168010888831    4.59840026031405
C           8.93962436107139   -5.01925932749436    3.23629463934271
O           9.32515546153783   -5.45786695825289    4.31010793909117
C           9.64979909490627   -4.67470112301521    2.03045204830468
C           8.69947210533033   -4.21683933965867    1.08185558989569
C           9.41266418667821   -3.86298349057940   -0.12534271691723
O           9.03649761621331   -3.43617528295748   -1.19707315788521
N          10.76229780080283   -4.13189433018098    0.17679613490145
C          11.81106903367922   -3.85562827918049   -0.77600799904019
C          12.52317951371655   -2.53979750802060   -0.47320548399381
C          10.91814252078791   -4.60604622305636    1.45340948152036
C          12.17737618394176   -4.93301888617464    2.02648125937075
C          12.24214212478071   -5.39976696682487    3.29263016035103
N          13.38656176329831   -5.69752735127373    3.98645675594751
C          13.37297879652213   -6.20432486914711    5.27562431829667
C          12.13584154463493   -6.55245568903504    5.99846282864735
C          14.66859498324762   -6.31780576012248    5.69813538278668
C          15.54809617806601   -5.86884070484495    4.64587382496812
C          14.73185213227769   -5.46883257293380    3.52724258161799
O          15.01476239132550   -5.03148436241510    2.43861346895869
C          16.84406229925750   -5.96051634084286    5.06620444241403
C          18.09073325450592   -5.62261172876883    4.36146204100271
N          16.81645746878283   -6.45785932153367    6.36221237449951
C          15.48478110496285   -6.70435993187113    6.81163387648282
O          15.25116680725826   -7.14095322687313    7.91842326198303
C          17.87475884403240   -6.69493893509010    7.19283265400595
N          19.11739939049720   -6.48424514243106    6.88755378811089
C          19.93178256479391   -6.80231501079783    7.90684236539381
C          19.30734164178660   -7.27336995145410    9.03408844197614
S          17.57788703315519   -7.31996947771748    8.79907932072784
C          19.91263961791962   -7.66975923716787   10.22662181267057
N          20.41807304178084   -7.99327899428446   11.20486922010512
H          -1.73106347459600   -1.36685431999021   -2.42513965514455
H           2.79408651757557   -1.88833647936671   -3.14212454916301
H           6.89267397326823   -3.31460373938668   -0.80203079024315
H           5.30807528798098   -4.00919780135108    1.73768524926510
H           6.97861209901214   -5.60396717697878    4.68757943868203
H           5.69253636887128   -5.39575613818658    3.47788078625603
H           7.05544175434498   -3.16954897957949    5.08800808505775
H           5.41512706360786   -3.77117722130883    5.34477763334387
H           5.81371371908170   -2.89025845951102    3.86463879097752
H          11.32164166426880   -3.79136021480429   -1.75188122845314
H          12.52111178743419   -4.68664956640594   -0.78790592444500
H          11.80827331151075   -1.72051882846745   -0.47836676206121
H          13.27529449705240   -2.34887771280163   -1.23329835467780
H          13.01063710678615   -2.57248713720586    0.49837394138047
H          13.06970613775506   -4.78704611953527    1.44119572790703
H          11.32880568462168   -5.55073227326239    3.85313516444720
H          11.58893043020712   -7.33452592507813    5.47084010836317
H          11.46531301111375   -5.69640540497965    6.07619521665190
H          12.39185041001908   -6.90350106368494    6.99431144391457
H          17.85456860710053   -5.25776238152078    3.36585856845949
H          18.73710403514314   -6.49699303748773    4.29743450491574
H          18.64475637111968   -4.86687340661580    4.91684820959410
H          20.99203847519355   -6.67348253422236    7.78672467785499
