108
 SCF done       -214.485688166464          0.000581348528
C          -1.67216897810790    0.17942221658535    8.67180753918868
C          -2.35207310709161   -1.04096114517342    8.50991690461482
C          -1.80059692600421   -2.19830201732863    9.03602669673052
C          -0.59492364129209   -2.15917453277855    9.74134682991598
C           0.07270662827885   -0.92489283136779    9.89920489575480
C          -0.47804647539404    0.23579350773263    9.34399427977750
N           1.24665050960401   -0.89297741952543   10.58821812634457
C           1.88391588852002   -1.97095980972703   11.18262094618844
O           2.92674213800507   -1.81263475422204   11.77496970604010
C           1.17059823449694   -3.24316177656151   11.00431232738213
C          -0.00199024391567   -3.31696054217479   10.32072840499501
C           1.74434827992977   -4.40199565989770   11.57432630221315
N           2.18742616928932   -5.35921875847281   12.02134866068215
C          -3.62468048603199   -1.09393241404698    7.80963977401285
C          -4.77038178027988   -0.38490723209556    8.07337232353870
N          -5.00062658462528    0.55941381912344    9.09630438844420
O          -6.12314592956640    1.02438181529986    9.17660537135683
O          -4.08423255612630    0.84759256979383    9.84642809282055
C          -5.83153616667055   -0.83153074701246    7.18882186055529
C          -5.35722900594129   -1.83623514947673    6.42309009325884
C          -3.96330587876506   -2.04601648216925    6.74088313772869
C          -3.07853083077658   -2.87024185870647    6.08555283480786
C          -1.65793283965701   -2.69780388753600    5.98148234840793
C          -1.18550178270755   -3.56306510291640    5.05012401736304
C          -2.26945670488676   -4.36821170874977    4.55037313860869
N          -2.00616204132881   -5.41595608779020    3.64967856747002
O          -2.93688675527391   -5.98311190271851    3.09659527982138
O          -0.83737659843568   -5.70399027625729    3.46467431127639
C          -3.45078706712198   -3.98933110470691    5.18741204844211
C          -4.73580171447128   -4.56930393740441    5.26728689004796
C          -5.37579796212085   -5.34146195762822    4.33901426694465
C          -6.67369059013322   -5.84146540347867    4.57071995594596
N          -7.37081530836547   -6.59560678210686    3.66139520222942
C          -6.88552759180436   -7.07016334714957    2.38471602050586
C          -5.87806729687202   -8.20601112173749    2.53546915985255
C          -8.65423978874231   -6.92668761749481    4.12154117680035
O          -9.44374535657760   -7.60651901824955    3.50079241174782
C          -8.74300051733014   -6.29112782218846    5.42464676052838
C          -7.51163531592321   -5.65482472169030    5.68252749811043
C          -7.59667717684140   -5.04057807097608    6.99235499954767
O          -6.79333695087060   -4.40534142975570    7.64696096177435
N          -8.89545246075535   -5.34457925395644    7.43666258841439
C          -9.37798108172763   -4.88091798080622    8.71645300348775
C         -10.21113051104270   -3.60962082798385    8.57684484289542
C          -9.59472676665674   -6.07229093255858    6.51169406008357
C         -10.94610346572205   -6.48126023678959    6.68040246788349
C         -11.61373145091164   -7.11913570156228    5.69555805375431
C         -12.97519036292478   -7.58577988124212    5.74984389984050
C         -13.81259841484225   -7.47108809631182    4.62116223103346
C         -13.42562032283924   -6.67550830914778    3.43662069610870
O         -12.46495160179877   -5.98016568423830    3.30299920506269
S         -14.70359951184788   -6.83154245898145    2.18944475240901
C         -15.75793558894740   -7.81472311678550    3.25334974815425
O         -16.82752340746760   -8.21448918343672    2.89764973181170
C         -15.08729863055857   -8.02168611046600    4.55631728694964
C         -15.66075945978376   -8.74677798326998    5.62702345886593
C         -14.85217676416429   -8.79842290470094    6.77725225366311
C         -13.57541254788527   -8.23794252114968    6.83837210219645
C         -13.04325047722775   -8.50591247860066    8.19824672492100
O         -11.98895947730709   -8.24112748188943    8.68814848623760
O         -14.02663684225225   -9.15340167786950    8.89685140167679
C         -15.14754721008893   -9.34685936606581    8.12523994044608
O         -16.13098858941020   -9.85286552261170    8.56765308782155
C         -16.97052134734566   -9.33022864097985    5.50160404834140
C         -17.36626353812508  -10.49515149515725    6.04259534842148
C         -18.67475034970941  -11.08549459096445    5.86426451251638
C         -19.06463310801463  -12.12442356814096    6.73310003900439
C         -20.29788295752234  -12.71637388000212    6.63404841293182
C         -21.19471879991404  -12.30396469368901    5.64186564120947
C         -20.81780406900132  -11.27736129710976    4.74730650492592
C         -19.56126760960431  -10.68265361454350    4.87395409195916
C         -21.75254409985757  -10.89386825517972    3.74192145412324
C         -22.97055080825938  -11.48845787095834    3.64543733598322
C         -23.38524335782389  -12.55722203006398    4.56478375201666
O         -24.44393818656217  -13.14180854927916    4.55156398723758
N         -22.42260150246147  -12.87653365134672    5.51070459070586
C         -23.88790261095861  -11.09275277875662    2.64549803106609
N         -24.61245846767461  -10.75069090840159    1.82676448830591
H          -2.08873159737945    1.07760254192520    8.24535519102685
H          -2.31716250452546   -3.14048559661033    8.93022495482839
H           0.04031508036217    1.17580538950609    9.45726875291002
H           1.71369113314062   -0.00040266792727   10.70704343182914
H          -0.50385413148474   -4.26820547524827   10.20859016057577
H          -6.81391324665590   -0.40016839760590    7.18704052585084
H          -5.88299622045537   -2.33121356687161    5.63163036159253
H          -1.09460872599563   -1.93417869552745    6.47924859076552
H          -0.17424977108785   -3.66532472915090    4.70383242816919
H          -5.26573418631820   -4.34929259811425    6.18565798418279
H          -4.90779016002364   -5.55941565978106    3.39313372825398
H          -6.44430438470830   -6.23784938745471    1.83029135059843
H          -7.76854851246159   -7.42532019384626    1.84638017632448
H          -4.96225917698824   -7.86122976348308    3.00822855120933
H          -5.62884888261141   -8.59782134992444    1.55370934989291
H          -6.30456659927902   -9.00947463436612    3.13134529916796
H          -8.49052587180086   -4.67075941863247    9.31950432781117
H          -9.95143709241863   -5.67788845210711    9.19595291556758
H          -9.61042213581272   -2.81707959563152    8.13725201972461
H         -10.54865532967665   -3.28388608324847    9.55642841493430
H         -11.07992053620540   -3.77806396357231    7.94419619511732
H         -11.43195186636730   -6.23350212090078    7.61082989683702
H         -11.11433058052844   -7.27915894946100    4.74629383684058
H         -17.64431945557145   -8.79238904231631    4.85134054989134
H         -16.68473131913391  -11.06666816422542    6.65531129008523
H         -18.37909963364514  -12.44135284410359    7.50431591500336
H         -20.58592237209762  -13.50418614012923    7.31410239388680
H         -19.28421301570800   -9.91888764982868    4.16412100056134
H         -21.47607170415867  -10.11131378143888    3.04873275461861
H         -22.68505133899006  -13.61427497194516    6.15556087821351
