115
 SCF done       -238.408853230446          0.000550132827
C          -0.40394474907879    0.09929702746976    2.74272152485230
C          -1.25532319096352   -0.18028891811064    3.77382155808051
C          -2.18126434923401    0.74583469290276    4.30195086782470
N          -2.95350728579288    1.45695080549029    4.76322049939106
C          -1.25042012414868   -1.40588590856876    4.47285525832296
N          -1.25010936924902   -2.37057385874885    5.09520107037642
C          -0.18564371031196    1.40135833446356    2.12730853140209
C           1.04538284539988    1.38719265307860    1.44173371317018
C           1.51847284978664    2.50571402173632    0.78431120288450
C           0.74498467915785    3.65941141741445    0.80460868576430
C          -0.48684829244581    3.67566992940125    1.47388767251622
C          -0.95804981836278    2.55038892667451    2.14064338016111
Cl         -1.43418224162997    5.10411013160591    1.47506325533982
Cl          1.30061828659903    5.06982637519911    0.00276383686952
C           1.65564321394858    0.04717146518841    1.53951856189084
O           2.73098196976303   -0.32663514148090    1.14064760459479
C           0.61405004689685   -0.78969437169446    2.20614819910630
C           0.65921676891835   -2.13622865406492    2.11352467445987
C          -0.38212366036619   -3.08333404127276    2.37533935680259
C          -1.69079791062814   -3.09204632481074    1.92750834968639
N          -2.36659657586954   -2.13666296275288    1.14545362228828
O          -3.47632678248324   -2.43122020038747    0.74282325930341
O          -1.81670209155125   -1.06930367811268    0.90997185608589
C          -2.31678166798176   -4.34033067695789    2.29931177945223
C          -1.40802695583483   -5.10422708686050    2.94650225313147
C          -0.16814405943676   -4.37760245800296    3.03910922402033
C           0.96581686106102   -4.73556661380902    3.73036478566891
C           1.98979022705354   -3.85471494586914    4.20827148913065
C           2.81926520640095   -4.55046778806684    5.02718997567535
C           2.38924174593605   -5.92462667844458    5.07395229952139
N           3.19004262944165   -6.92090309676303    5.67113511190715
O           4.13331395168129   -6.54369490751657    6.34058190404072
O           2.92988406530884   -8.09356510642939    5.45504515605093
C           1.25941436914117   -6.07666559000270    4.28290104629988
C           0.54370854741494   -7.25370204976684    3.95088738738140
C           0.27888909960869   -8.26316462648583    4.82671676266925
C          -0.39580063694967   -9.47803800619649    4.57858554693322
N          -0.61545611779904  -10.13727805970174    3.39362683999319
C          -0.03816625721820   -9.85961045807486    2.09674704005937
C           1.48294581755757   -9.97124024091157    2.11470561287109
C          -1.34164745611938  -11.33560903971089    3.58865154906007
O          -1.63666286937146  -12.09785206619219    2.69684759593661
C          -1.59631190753522  -11.37044193668635    5.01505441624765
C          -0.99834981944489  -10.24111267544806    5.58963107276533
C          -1.27119845230900  -10.26914324817589    7.01292237173510
O          -0.97166465562542   -9.52088898032240    7.91182972836723
N          -2.04626786044569  -11.44629886756581    7.19871170977548
C          -2.36753170577398  -11.87008943396926    8.54300742234001
C          -1.55837689927389  -13.09248196102003    8.96389795903856
C          -2.24795997178869  -12.10632888344885    6.01598329313841
C          -2.97849373097828  -13.28574877610203    5.73203664869878
C          -3.85288896682297  -13.95825997368609    6.52533978375649
C          -4.52678230883305  -15.13574660779227    6.10806892606079
S          -4.21467565340544  -15.85166600130636    4.55888821213661
C          -5.32917284305265  -17.14825289224957    4.86180098538760
C          -5.94783458061281  -16.99210348933218    6.09671138608149
C          -5.49046711305670  -15.86792256593033    6.80167835987403
C          -6.02297795433104  -15.47774247986811    8.15261392487121
N          -4.88376336585372  -15.42274096368237    9.12511882399544
O          -4.57583485514186  -14.32908321512861    9.53407091124146
O          -4.35366010597132  -16.45859758349887    9.41990916398977
C          -7.04818842177240  -16.47828900039108    8.68992051654923
C          -7.93962295311210  -17.00122242907262    7.57355874958700
C          -7.08021625185092  -17.82320273889251    6.61120863964994
N          -7.94595004137022  -18.27128831229627    5.49566806866667
O          -8.31256190577565  -17.43328462948820    4.71040030468076
O          -8.23954665495918  -19.44178604367639    5.45739197084386
C          -5.52740357223520  -18.07931074511473    3.79958456435924
C          -5.77962084865946  -19.41271548611757    3.87775492033360
C          -6.12685967813917  -20.29316214473464    2.76874241729933
C          -6.42031417271080  -19.91568011540053    1.48866014336852
C          -6.77911792319450  -20.81798336738716    0.46155701325363
N          -7.06667550289235  -21.49643226610400   -0.41724926449974
C          -6.41315141815398  -18.58877383744166    1.00270747514570
N          -6.42788214080480  -17.54077659011350    0.53579850689254
C          -6.17957955439911  -21.65296234093449    3.29303200399689
C          -5.88319960986241  -21.62948572642094    4.66769462599471
C          -5.62032785961738  -20.24837821137699    5.09654436104814
O          -5.27169992289875  -19.87358606399434    6.19624148839470
C          -5.86690398917858  -22.77923687840718    5.43151869403962
C          -6.15804026513783  -23.98633099966029    4.81010883978700
C          -6.45408711049136  -24.02098809817087    3.44040237353214
C          -6.46607324069174  -22.86019787292792    2.67536763708304
Cl         -6.80810365834986  -25.51905789572208    2.68503753000705
Cl         -6.15564302361503  -25.43769239325341    5.72246100436552
H           2.46461334483029    2.48198189691754    0.26686872997448
H          -1.91439507072775    2.58871828868077    2.63658388661580
H           1.59159263633033   -2.55095878084219    1.73875498859143
H          -3.34286198183339   -4.56852261564598    2.08333426650708
H          -1.59986775876099   -6.04633666265315    3.41991445531979
H           2.02856360931866   -2.80103639035932    4.01635074806268
H           3.67381089776033   -4.18366292147736    5.56387951523064
H           0.15288032433427   -7.29041386747536    2.94459308044155
H           0.52460590863146   -8.12481843952348    5.87121579466808
H          -0.36079251107209   -8.87790828743844    1.74093707413696
H          -0.45837427989385  -10.61555954696072    1.42608002898190
H           1.92325596775963   -9.28942199149218    2.83805641257692
H           1.87697723569721   -9.74104238172586    1.12892210664092
H           1.77787967529701  -10.98401893689756    2.37733935905784
H          -3.43868534256830  -12.05606338294973    8.64260434567672
H          -2.11041727748715  -11.02228624752751    9.18457432345208
H          -1.71492672753548  -13.92456143095064    8.28141837275848
H          -1.86599578909496  -13.39977021707968    9.95852826407124
H          -0.49811944374108  -12.85327304747048    8.98067015740282
H          -2.82056003672849  -13.64318777293096    4.72054974162056
H          -4.07830073101959  -13.58962222272416    7.51236109747709
H          -6.43551123712536  -14.46306198904764    8.11327788810656
H          -7.65348857526245  -16.00208350989938    9.46219737427396
H          -6.51139745823633  -17.31882715541520    9.13777975874511
H          -8.40285992496507  -16.17373851742890    7.03040241696388
H          -8.72750924815426  -17.62831457475293    7.99268206540736
H          -6.69923732428718  -18.72637737905729    7.10628643605363
H          -5.41529079960343  -17.64178563647119    2.81499936561741
H          -5.63784306385611  -22.73716017885671    6.48450888424381
H          -6.69677956686927  -22.92742361630989    1.62495148485506
