104
 SCF done       -194.357937419013          0.000787406031
C          -2.60223524838454    0.22223168349692   -5.77303759202995
C          -1.27073724386297    0.54533415062797   -6.03449995615348
N          -1.04735423797009    1.71380680641463   -6.83807133852222
O          -1.97208566604596    2.11697352915406   -7.51065922401715
O           0.04696763584571    2.24650102388234   -6.80398371837018
C          -0.22719221776844   -0.25309937094300   -5.54424356510797
C           1.24110098854259    0.04067544260212   -5.76923484203423
O           1.70143897809701    1.09706445488739   -4.96902982577237
C          -0.57298034255572   -1.36982129860878   -4.79932274349695
C          -1.89846169060907   -1.69987419877424   -4.52697840892450
C          -2.91890653622796   -0.88086219262934   -5.01722068904013
C          -2.22095838673868   -2.87241464602182   -3.73140051399284
C          -1.82337447368740   -4.17990599286520   -3.92810164096867
N          -1.07892229162205   -4.70270900057329   -5.00050464258190
O          -0.73778031496565   -5.86976452485874   -4.93125331229780
O          -0.83880790294812   -3.97878145053352   -5.95416184818729
C          -2.42338377403174   -5.02195040069042   -2.91747641776159
C          -3.25145049646928   -4.25763186838439   -2.16724736162158
C          -3.15567064337513   -2.88948461935635   -2.62267887729023
C          -3.75393193069501   -1.79277219672370   -2.02372155420912
C          -3.19979044068533   -0.49569342471337   -1.87025377816257
C          -3.91595963155387    0.17479486069946   -0.91248096983180
C          -5.01064654336535   -0.63216973933958   -0.48999843213728
N          -5.97586652172695   -0.19797596376218    0.42829269932070
O          -6.89701462831702   -0.95257560049582    0.71090688489469
O          -5.83775601527143    0.91558238632802    0.90506611494281
C          -4.98854219584326   -1.83832968017305   -1.20870228465636
C          -6.02370684718251   -2.76799470592816   -1.32723374605196
C          -6.18583535243278   -3.61155662874707   -2.40778376855658
C          -7.24502432611569   -4.51464889310582   -2.56027699481744
C          -8.33566427632386   -4.67826046119671   -1.70311293739960
C          -9.26410586767857   -5.56050530091522   -2.28053992130027
O         -10.30690428985137   -5.97346628743858   -1.55484003296249
C         -10.89738854835822   -7.24154794977058   -1.76026552080729
C          -8.80778659095245   -5.92963496130491   -3.57520512099053
C          -7.50379579429800   -5.33907039660669   -3.74660937635686
C          -6.66069662183172   -5.47794596003222   -4.83350137007450
C          -5.25618079143244   -5.31120659396761   -4.84234463016204
C          -4.79350380038301   -5.51867024900708   -6.12199096442462
O          -3.51581450884122   -5.45476026890345   -6.44352011403438
C          -3.10357872743615   -5.73096661692998   -7.76973251180498
C          -5.94806050737252   -5.77998946825873   -6.99374504506045
C          -7.04808924268726   -5.78857139694631   -6.22726876618125
C          -9.43659272238872   -6.75937844685361   -4.53838047306420
C         -10.77741039439093   -6.80735476307533   -4.78204764643311
C         -11.37114823796603   -7.64724227790060   -5.75280694308223
C         -10.76579624106756   -8.52741541329892   -6.62989662375836
C         -11.76034946896521   -9.19858067381614   -7.38641567157867
C         -13.05933507080930   -8.66833501129960   -6.91764200432164
C         -12.81094732878400   -7.73764301771802   -5.96303205923914
C         -14.33094336941981   -9.04519109467338   -7.36422481454759
N         -15.38897467567957   -9.34070746222498   -7.69934923392372
C         -11.56998717022937  -10.16336653405165   -8.34931565513412
C         -12.56841130436094  -10.91907383201127   -9.03740357004016
C         -11.96162921985244  -11.82124135869810   -9.87567608907491
C         -10.52438724544894  -11.63890248077839   -9.75481228726540
C         -10.27662461383104  -10.65628735909895   -8.84575981352908
C          -9.01082922232103  -10.18445727715126   -8.48775795113525
N          -7.96373058213530   -9.79592860989261   -8.21435305535357
C         -12.60625457274938  -12.79850552259655  -10.72444901265481
C         -11.89696141216525  -13.46697204196070  -11.73120003566236
C         -12.52858374928112  -14.40200261513564  -12.51419928430301
C         -13.88089338365935  -14.69226619149002  -12.32954426626262
C         -14.62299310564393  -14.03719954922124  -11.33465675971936
C         -13.96015145280547  -13.10595916689801  -10.55239258597665
C         -16.09511675789348  -14.28607073270740  -11.07645561172800
O         -16.91580909445689  -13.70037302846186  -12.04985635335616
N         -14.44009449237545  -15.69418259392474  -13.19102834113164
O         -13.66965074652266  -16.44130472353608  -13.75597123182115
O         -15.65038672124102  -15.74870844554730  -13.31698384475258
H          -3.37412854535530    0.86206677085406   -6.17351003006595
H           1.42200237355986    0.24502409424835   -6.83327422439512
H           1.82476315915387   -0.83643283304538   -5.48076039888073
H           1.38462967535223    1.92288743511341   -5.36566853318867
H           0.21493183926407   -1.99496606590998   -4.40892561625891
H          -3.95076249913137   -1.12592545942817   -4.81776332865363
H          -2.22563199815645   -6.07286049490437   -2.83079339146706
H          -3.82301749136149   -4.56738114053727   -1.31383912838894
H          -2.29031869619734   -0.16009545761804   -2.32930579355838
H          -3.71098185317746    1.15209810874749   -0.51675278660082
H          -6.78902580174123   -2.72738652644491   -0.56424784948548
H          -5.49355817648240   -3.52199158237886   -3.23033373986345
H          -8.47619453472104   -4.21558393567103   -0.74546034402574
H         -11.17196209478591   -7.60428558006523   -0.76885711010561
H         -10.20250618389972   -7.94119333667311   -2.22694502489407
H         -11.80150998390945   -7.16745659091123   -2.36852322350137
H          -4.62581660517848   -5.20485724838379   -3.98532019283526
H          -2.02423536747745   -5.58850376781273   -7.77550499336681
H          -3.56508682934933   -5.03730529960969   -8.47654709289483
H          -3.34387928733482   -6.75951079409370   -8.04830918899937
H          -5.89844620009964   -5.92778352675836   -8.05543005378937
H          -8.06035862857285   -5.87926761198998   -6.56938176119391
H          -8.78027662995948   -7.34967875108708   -5.16230355163634
H         -11.44061397974905   -6.14343627601506   -4.24389134116422
H          -9.71364674237030   -8.70064027091213   -6.73373839996828
H         -13.54365852499300   -7.16031923968017   -5.42896799136724
H         -13.62153110199179  -10.77520196215673   -8.90284090704013
H          -9.77539611128781  -12.19989256595308  -10.28139868897226
H         -10.85787459041714  -13.24351462195261  -11.91001651591680
H         -11.99427421154164  -14.92618442677602  -13.29239998438841
H         -14.51710149162098  -12.60721625232155   -9.77524199426914
H         -16.37178801958222  -13.81851669825946  -10.12825727738031
H         -16.28335577423297  -15.36653966812680  -11.00173637425248
H         -16.86513886360808  -14.25083022537619  -12.84618329089058
