101
 SCF done       -194.049805566810          0.000601767736
C          -3.83962559181338    1.25446100020380   -8.20384860928127
C          -3.91043086938320    2.64217441500506   -8.32356052318818
N          -2.81006711639648    3.29178672440799   -8.97847450223580
O          -1.81379913464730    2.63182626808262   -9.19239046055502
O          -2.92557669456911    4.46328901867721   -9.28279706762640
C          -5.01406566904885    3.34760602709954   -7.82288245505205
C          -5.14380149959989    4.84192538796154   -7.89553373651860
O          -6.22789829086940    5.27369552679063   -7.10400445436995
C          -6.03114403257913    2.61680270597576   -7.22676557941454
C          -5.97015352029803    1.23261576451880   -7.11346155052544
C          -4.85326391938706    0.54917239433209   -7.59919758273052
C          -7.07334591919347    0.49754842921397   -6.50554828805322
C          -8.35872440830800    0.40556952390817   -6.96980457220397
N          -8.89373461312060    0.99256227235492   -8.13876777540198
O          -8.13140757189520    1.54219480285787   -8.91193448221608
O         -10.09569680313818    0.89770231175636   -8.30460186993626
C          -9.13072907330019   -0.46734917628367   -6.10339449574021
C          -8.30822795957443   -0.95136565239305   -5.15034768920095
C          -6.99094011797257   -0.37798820842561   -5.33208805988948
C          -5.89134147769119   -0.52375306107281   -4.51924911796343
C          -4.80694265809104    0.40308141182284   -4.38381311746673
C          -4.06513806252536    0.04324489601070   -3.30618728220413
C          -4.60329020182774   -1.16130161629104   -2.73169766100717
N          -3.93475522596239   -1.77874859340667   -1.66138702259389
O          -2.82748939909528   -1.35380373431166   -1.38198842356754
O          -4.47537757472214   -2.69401063792862   -1.05577099719097
C          -5.71222433542671   -1.56690135546575   -3.47958048372974
C          -6.45621575750968   -2.76207128213811   -3.53289576032685
C          -6.65149507544277   -3.68072413087941   -2.53569817070265
C          -7.40558000568790   -4.84910192004358   -2.74164625445849
N          -7.65334879649846   -5.77660598340962   -1.75765514594889
C          -7.13714618328645   -5.75566117025822   -0.40701907876737
C          -5.65630669995107   -6.11853211460681   -0.34867478222762
C          -8.45862471513841   -6.82615131010435   -2.21175749023499
O          -8.82523902178492   -7.75428788740783   -1.51662474537923
C          -8.72017568942126   -6.50628118403976   -3.60251366609358
C          -8.06473960066885   -5.29765999518552   -3.90001638901019
C          -8.33572120227428   -4.97205844567652   -5.28625644067997
O          -7.99543424293349   -4.03771080172762   -5.98383739487241
N          -9.15540146956205   -6.01986733041369   -5.73693384259036
C          -9.59771778938851   -6.08102717143494   -7.11035241525299
C          -8.74618852136031   -7.04001649408486   -7.93827503658139
C          -9.39568625736005   -6.94741785013977   -4.75194413068212
C         -10.20347198697978   -8.08888447815900   -4.92559357320376
C         -10.45598142322904   -8.95205038337092   -3.89658385948339
C         -11.26985954749273  -10.10039133587266   -3.91861319087853
S         -11.79254335630346  -10.71532219706983   -2.38136136661686
C         -12.80142936059525  -11.91561309472141   -3.08620838064019
C         -12.68410221084048  -11.91187845499499   -4.48277040309600
C         -11.80676690405110  -10.88179970196498   -4.96228639341080
C         -11.52442713945428  -10.80544771203038   -6.33452593731836
C         -12.11212196074390  -11.69210526821096   -7.20872848633392
C         -11.82516951020696  -11.60234209483787   -8.59075871726890
N         -11.57437085591687  -11.50077699696153   -9.70385919607738
C         -12.98266222874100  -12.71582784865066   -6.73045460586244
C         -13.54083982324041  -13.63560362932782   -7.65044632221307
N         -13.99730853473728  -14.38347208221346   -8.38757188366581
C         -13.24965390408298  -12.83093374907158   -5.38726612248011
C         -13.63500201635045  -12.74390190569314   -2.24624933785184
C         -13.18747423465024  -13.13752675135028   -0.97844087970074
C         -13.98058045165749  -13.93431853900662   -0.18947103969456
C         -15.23537023311587  -14.35278383716776   -0.63305582712338
C         -15.72746643193755  -13.93731944785335   -1.87730031177557
C         -14.91008032758144  -13.13366425199438   -2.65841899933965
C         -17.09441878745196  -14.30019397234956   -2.40791256174660
O         -17.47906666600753  -13.52546776414327   -3.51445901243159
N         -15.98477067011028  -15.20821774437902    0.24688908360358
O         -15.62616254431563  -15.26900398555052    1.40394828664421
O         -16.92572277953143  -15.82232638423023   -0.21386307499092
H          -2.97296722018444    0.75018736637158   -8.60368709368687
H          -5.28585423766518    5.12578707541321   -8.94822850910019
H          -4.20912278480965    5.31265986818910   -7.55652989614515
H          -6.34915948626568    6.21737279198172   -7.24542556363218
H          -6.88074958567396    3.15565077154666   -6.84029754809014
H          -4.80222689916930   -0.52533635959747   -7.51897287628984
H         -10.17636135044999   -0.66115226192142   -6.24432045550306
H          -8.59108445669926   -1.57742181791614   -4.32823201468450
H          -4.67783373377931    1.28684699579650   -4.97547296216800
H          -3.20646005162965    0.54815196951610   -2.90512584236833
H          -6.92455160709305   -2.95564115383085   -4.48961852876652
H          -6.24180563403674   -3.50866036765271   -1.55394564957274
H          -7.72291665569104   -6.49620412233455    0.14473059984552
H          -7.30694859367024   -4.76980648512806    0.03327011906661
H          -5.48444375913918   -7.07658257521590   -0.83373946905892
H          -5.34598575473054   -6.19496826296563    0.68925139851843
H          -5.04539165463344   -5.36106101097258   -0.83213734875948
H          -9.49648831022181   -5.06716257760254   -7.50687340407748
H         -10.65301073923302   -6.36540785583408   -7.14231881369698
H          -7.71231618241556   -6.70433384138723   -7.94847989344719
H          -9.11182281834938   -7.06748794022656   -8.96063670794240
H          -8.77609336899190   -8.04758985941308   -7.52887221543318
H         -10.66129643239010   -8.23017509377983   -5.89150051861782
H         -10.03225763685263   -8.71364811118442   -2.92762687114969
H         -10.82163608627096  -10.08386474961651   -6.71683325778779
H         -13.86234572944791  -13.64407653804401   -5.03153836269441
H         -12.21079857596854  -12.83194843900975   -0.63602845982057
H         -13.64739845178767  -14.26131483331470    0.78379334398417
H         -15.30252177519174  -12.78734715995159   -3.60225769066323
H         -17.84301524535525  -14.25023575864018   -1.60806300150540
H         -17.07197119057448  -15.33811995363553   -2.75693895399908
H         -17.74966733514145  -12.65070787277901   -3.21509283681225
