70
 SCF done       -128.880055447774          0.000969327211
C          -1.59500090874327    0.61269986846115   -0.87066870438210
C          -0.22872997000943    0.88566851641423   -0.97459819193581
N           0.13279367308697    2.26741366211072   -1.10085019897380
O          -0.69277952412743    3.09629801487885   -0.77940005396846
O           1.23892056096518    2.54632089514618   -1.53028753576162
C           0.71928539524805   -0.14980806080616   -0.93884595132856
C           2.21512161152894    0.06737343932918   -1.04242411130742
O           2.62611762031752    0.35469509384889   -2.35145471363159
C           0.24706795161386   -1.44487305112058   -0.80498627788504
C          -1.11928292165285   -1.72770508477678   -0.71170828449012
C          -2.04657337069272   -0.67756420961513   -0.74580842906223
C          -1.55002495863473   -3.05448073339279   -0.58122191532850
C          -1.90437675390340   -4.21210921841526   -0.46211850251630
C          -2.29117228971350   -5.48919326217032   -0.31760853127551
C          -2.63981051737991   -6.64783032339639   -0.17278264876426
C          -3.00043202461431   -7.97231727696824    0.00190277055259
N          -4.29248199407515   -8.37879358771097    0.23969777327064
C          -5.44591125220743   -7.51515802549847    0.26627727154311
C          -5.86295059465716   -7.08793799429190   -1.13852020294669
C          -4.37575952409714   -9.77505788353966    0.41078611707052
O          -5.41265417113823  -10.36366347664580    0.63542302290256
C          -3.00958502111009  -10.22491251577069    0.26196144335279
C          -2.18837486581568   -9.09631535296093    0.00739818535895
C          -0.82895184712428   -9.56121397844711   -0.14181930452539
O           0.21234249767608   -8.98942048981846   -0.37618046658772
N          -0.91962600216871  -10.96341262222671    0.03847422769226
C           0.28360367570342  -11.75647076784986   -0.02351728997234
C           0.84941382269707  -12.04588594038865    1.36570312910959
C          -2.21265308941944  -11.36470360848901    0.29215005261638
C          -2.74204065816805  -12.65783040522059    0.55595477879355
C          -2.10549487600564  -13.84598576335723    0.69014843392125
C          -2.79006000486296  -15.01649834956747    0.99085553307160
C          -3.35685487165361  -16.05700744302895    1.27424354318895
C          -3.98254594951469  -17.19958746807708    1.60622879832400
C          -4.54287936315549  -18.23172061022138    1.92114722228984
C          -5.18948179885161  -19.41686737373795    2.30336453465811
C          -5.32525596570948  -19.73885084253278    3.65996842874569
C          -5.94794160467428  -20.91091254855625    4.01263373923208
C          -6.44307359403278  -21.78007109417423    3.03841900050408
C          -6.33067235600752  -21.46915456601929    1.67461074572287
C          -5.69865889021416  -20.28301434043870    1.33460158175043
C          -6.86967349351188  -22.34579233404394    0.56986092527952
O          -6.88351425884471  -21.71744838270353   -0.68606864287475
N          -7.05770482968734  -22.98881519623399    3.50561366090544
O          -7.35636010007263  -23.04786231781722    4.68144404244540
O          -7.24337165386503  -23.88949614345049    2.71020537549185
H          -2.28544502278946    1.44233542321288   -0.89901350361845
H           2.72625104143251   -0.85707807453104   -0.76167094963724
H           2.52517255149979    0.86231932021022   -0.34943064598214
H           2.38142592640818    1.27398574563578   -2.53889437646261
H           0.95077039561446   -2.26305453838174   -0.77429965767693
H          -3.10228879866109   -0.88868747631134   -0.67573282081465
H          -5.22151339315914   -6.63606658840484    0.87914914164560
H          -6.24800875414817   -8.09023272305686    0.73690641276647
H          -5.06395854906010   -6.52907374562436   -1.62166896513703
H          -6.74623125639686   -6.45795453049555   -1.08457720303309
H          -6.09503828503267   -7.96215273827486   -1.74215332262272
H           1.00684072963386  -11.15507297956489   -0.58352387291334
H           0.09168216663407  -12.67442926349133   -0.58456787189314
H           1.13063215640438  -11.11211437322690    1.84621659726914
H           1.73383062314680  -12.67179294132310    1.28162549149151
H           0.11946283430907  -12.54869477292069    1.99682402165702
H          -3.81833188519490  -12.64323940231861    0.68223115257489
H          -1.03516719994477  -13.95536030764079    0.59219992978344
H          -4.93598373760165  -19.07129202247340    4.41270347441503
H          -6.06139465937087  -21.18950532413127    5.04940062516168
H          -5.58437887927859  -20.03535516958207    0.28955194557498
H          -7.86788982423044  -22.71907446422497    0.83446492278874
H          -6.22113336151173  -23.22137663572111    0.46115980365792
H          -7.56196575736803  -21.03321926411581   -0.69254470924382
