92
 SCF done       -171.000824942684          0.000652108584
C           3.81918561738202   -3.69805341036321   -1.45348108630366
C           3.87376911096215   -2.55436931652663   -0.65764456412566
N           5.08571010503711   -1.78609163169234   -0.73088656917400
O           6.07618432852772   -2.34356066994277   -1.15199651072656
O           5.06121689257688   -0.62210341921072   -0.37547338492594
C           2.79884426931360   -2.20425057617324    0.17082492358473
C           2.77941165011408   -0.97443912651402    1.05517222360421
O           2.55560101324557    0.20136314055615    0.32535731654635
C           1.68873390400509   -3.03714656238039    0.16272781342390
C           1.61734139485529   -4.17944464453087   -0.63112343036942
C           2.70359485051515   -4.50185697947714   -1.44738007119069
C           0.42227171770405   -5.02971525470400   -0.60618568705635
C          -0.84865551754239   -4.47164355698150   -0.52012622742722
C          -1.97374448133623   -5.28050252176074   -0.50428425142710
N          -3.25266871112209   -4.61424979875565   -0.57984264510980
O          -3.35865673881637   -3.55128766449938   -0.01228055675473
O          -4.11821696124179   -5.13733455320225   -1.24969333075151
C          -1.87563412204052   -6.67937501545229   -0.53027603489133
C          -0.59289705185756   -7.22171357763793   -0.64961314753506
C           0.52761602343002   -6.42108878744580   -0.68913972497695
C          -3.01930248798327   -7.56235881652764   -0.39152062542032
C          -3.99262869498363   -7.37853454345305    0.51782261227680
C          -5.13192814832361   -8.20269583346972    0.77259556017888
N          -5.74677056496825   -9.10951487308478   -0.06076736187461
C          -5.53090623578147   -9.32005885710917   -1.47298708084004
C          -5.85338647687277   -8.07672092681424   -2.29652673057989
C          -6.85453626340741   -9.72421713000123    0.57094334881787
O          -7.55863652648745  -10.55277373607625    0.02962885270965
C          -6.87746238647004   -9.14876169871017    1.89148561955663
C          -5.81642102842683   -8.21500899418145    1.97871111543113
C          -5.84387336271295   -7.64527754410056    3.30639958585611
O          -5.13472581812657   -6.82952425470197    3.85536348420923
N          -6.95656998048969   -8.25868038705703    3.93139004666981
C          -7.24159324767237   -7.96289969646566    5.31544006125800
C          -6.82112973003799   -9.10130134217709    6.24129246865977
C          -7.57359397220557   -9.16009038636063    3.09504404175240
C          -8.72597325711960   -9.97379089229917    3.29508821289150
C          -9.57966742532654  -10.00100990699594    4.33965022812098
C         -10.74401967913901  -10.84423538060762    4.40909501503546
C         -11.04188361506141  -11.86918122125005    3.54759071576525
S         -12.50612416128429  -12.66667403498265    3.93166738383448
C         -12.76664962500240  -11.63131739866510    5.26264972634572
C         -11.76501054171168  -10.71129988503568    5.41828394055616
C         -11.76788270941954   -9.70327354473234    6.48815735447519
O         -10.87800131790726   -8.92186292526101    6.72055730101092
O         -12.92622208862697   -9.77419817252831    7.18645044306938
C         -13.25316110834855   -8.96058955870229    8.23295572275339
C         -12.54609732854975   -7.96573747940342    8.77413299580913
C         -12.98305376804614   -7.14533304738584    9.88825499755501
C         -14.20993333292685   -7.30476487289693   10.54425023016035
C         -14.54156514692689   -6.48013818075826   11.59098114816362
C         -13.67283442518106   -5.47430988399828   12.02059255642797
C         -12.43689101413185   -5.29126004609112   11.38182362183420
C         -12.12514238170311   -6.13660050897933   10.32853938015156
C         -11.44874229941483   -4.23356397318496   11.78418539347312
O         -10.29843737200518   -4.30617168121894   10.97234157197238
N         -14.10840907297046   -4.66692258577321   13.11994546338574
O         -15.18943861191704   -4.91888635755538   13.61492419679665
O         -13.38266110365768   -3.76953618437644   13.50833317892654
H           4.66800775651303   -3.92931971517370   -2.07928482144518
H           3.71522668006887   -0.90978475294407    1.62796077861394
H           1.94667831570495   -1.05641896359562    1.75802935663937
H           3.38039164342406    0.42493430106530   -0.13224822600143
H           0.85985553899595   -2.79367102106136    0.80976202361300
H           2.66115652568395   -5.36575068668517   -2.09184577665089
H          -0.98396740384971   -3.40018668940586   -0.51164541573472
H          -0.48558129794611   -8.29543053289765   -0.68300444950601
H           1.50335913245316   -6.87764727703442   -0.75466307510813
H          -2.99601392529148   -8.44439222931059   -1.01263645065941
H          -3.91439412767811   -6.55720192040706    1.22116718093821
H          -6.21198211530431  -10.13254553520607   -1.74669485891917
H          -4.50834917768440   -9.66062731773586   -1.65573894015009
H          -6.89607515942682   -7.80220810715329   -2.15685770220024
H          -5.68939727603961   -8.28506044516116   -3.35021381493623
H          -5.23478324856426   -7.23137979905803   -2.00603975039021
H          -8.29973406473968   -7.72240565657922    5.43898618448016
H          -6.65475888398308   -7.06909066534628    5.54911246612678
H          -7.32853785644322  -10.02725511678495    5.98090020673333
H          -7.06811445011574   -8.84594360382126    7.26769269843908
H          -5.74797545545913   -9.26220891744970    6.16941039511965
H          -8.91493698900040  -10.60900087060419    2.43921427314879
H          -9.45048127792435   -9.35406097070917    5.18997338619603
H         -10.46877536911478  -12.20964420364554    2.70896261020383
H         -13.64078321553029  -11.75019086965640    5.87083787099803
H         -14.23446200058358   -9.24800028255203    8.58723621851925
H         -11.57251517835006   -7.72322223358545    8.37747584625531
H         -14.90319950212433   -8.07052483116581   10.23792225928852
H         -15.48359879416503   -6.59040764688912   12.10664231441168
H         -11.17458815120520   -5.99326741922991    9.84015208296432
H         -11.18667122730674   -4.37101201919326   12.84361770992638
H         -11.92598407309231   -3.24644871304084   11.69700712629280
H          -9.69165635454108   -3.61116461841797   11.24469946124791
