92
 SCF done       -168.087095903878          0.000707313358
C           1.58075607054247   -1.27821675343411   -2.56843737902469
C           2.30638970823678   -2.15247514545532   -3.37975162952651
N           3.35792508378029   -1.58167489430360   -4.17068151940394
O           3.56109681190548   -0.38933857477231   -4.06315319966147
O           3.99250729286567   -2.31269213112178   -4.90808215370130
C           1.99628822983003   -3.52118328188237   -3.39890474602754
C           2.72988130555291   -4.52428323969870   -4.24225238893217
O           2.20622855707053   -5.81496963313756   -4.02697940809267
C           0.96047373938789   -3.95922101522859   -2.58998645103639
C           0.23254675830330   -3.09668748304371   -1.76995787899951
C           0.55862913568767   -1.73357655446161   -1.77294277655148
C          -0.82849822890228   -3.61241727313867   -0.93703048579638
S          -1.38813690425135   -5.24954894469407   -1.10713589612768
C          -2.54482818778906   -5.06125392796714    0.17113880473799
C          -2.47979728837820   -3.76533178125051    0.69503968136835
C          -1.51558457102162   -2.96233948160057    0.06146850866583
C          -3.26943550821846   -3.26803836658187    1.74418368580705
N          -3.89067804606281   -2.81923631367928    2.59927095043002
C          -3.35965195965632   -6.16248094126985    0.52723836047661
C          -4.26808539162571   -6.16159430479576    1.54066447486232
C          -5.04746771675532   -7.29357263117204    1.86924520873483
N          -5.93267567736229   -7.32330521225752    2.91899833579003
C          -6.17392631606046   -6.26683878335090    3.87380836050735
C          -5.05907801515409   -6.17049820127477    4.91157378986921
C          -6.57621432324308   -8.56719314369893    3.02960428924825
O          -7.39646629684460   -8.82505111440528    3.88752489636947
C          -6.03604814426815   -9.34987656843798    1.93666968261554
C          -5.10381904465337   -8.54551455058006    1.24724192665256
C          -4.57088005384893   -9.32114075163910    0.14614525565274
O          -3.75075187077501   -9.05489340272687   -0.71025401215076
N          -5.23140406453044  -10.55407074543309    0.23864150482922
C          -4.93974828506732  -11.63059996120507   -0.67894710827153
C          -3.99284838425453  -12.66035214185773   -0.06850531048661
C          -6.10327144643524  -10.59806013534852    1.30341414595222
C          -6.88615422429696  -11.72214307317279    1.63146090106641
C          -7.72357784713706  -11.75064081910615    2.71049659811650
C          -8.50299605964147  -12.86967176872171    3.07863742346831
C          -8.60345725111200  -14.10792096316341    2.47290119023386
C          -9.49972099569287  -14.92435856580071    3.21372878363011
C          -9.96639653413930  -14.09643044047153    4.34684893045220
C          -9.36932959731111  -12.88252319163608    4.25284810490063
C         -10.86202815397352  -14.48245318659278    5.35054049394514
N         -11.59389504723197  -14.77494990298857    6.18616892420173
C          -9.86163126951065  -16.22422352820932    2.94432026389913
C         -10.76023149713890  -17.05264053085048    3.68751919735503
C         -10.85883118178121  -18.27725076207954    3.07794452609357
C         -10.00153884751190  -18.26190090296848    1.90582519217238
C          -9.39366203619943  -17.04646415606489    1.81861104455938
C          -8.48301543081496  -16.67085716260639    0.82724327898010
N          -7.73648716372995  -16.38359859250368    0.00125398913396
C         -11.66635388943192  -19.40046932325066    3.49981806508181
C         -12.04579497993642  -20.39798134065222    2.59297674449110
C         -12.82299763215994  -21.44911971276244    3.01404099693976
C         -13.22539346108053  -21.54997288888746    4.34673136118693
C         -12.85939447965944  -20.56861689298112    5.28122652746686
C         -12.08948988964797  -19.51015359444230    4.82758100288461
C         -13.24627088578324  -20.60945334054604    6.74537267548320
O         -12.49827527616480  -21.54870120205634    7.47010057974417
N         -14.03171261078788  -22.68714941152762    4.68257093111417
O         -14.58483872685538  -23.27178267639305    3.77480672537744
O         -14.11944069567317  -23.01861991114882    5.85176607925918
H           1.84505961982953   -0.23170222332241   -2.58466284859790
H           3.80013396101506   -4.49022535888584   -3.99103483872418
H           2.63918951708828   -4.23672876872545   -5.29999915406066
H           2.69120630377706   -6.43503258228738   -4.57995365470079
H           0.72827794651563   -5.01275278941238   -2.60371282804967
H           0.00810305053245   -1.03623717449343   -1.16350129022990
H          -1.33639180812194   -1.94391721508915    0.35592141297656
H          -3.22345899854990   -7.06216707217047   -0.05994660916300
H          -4.40991613942594   -5.27152996655467    2.13360175275255
H          -7.11577713283850   -6.51819422835042    4.36897834770655
H          -6.29388303192521   -5.31643398698573    3.34730978913856
H          -4.97016026880055   -7.10898118488600    5.45338794097039
H          -5.28869424081667   -5.37928745118374    5.61907271383210
H          -4.10441042612742   -5.94741105523879    4.44089092898140
H          -4.46549624512432  -11.16614415902430   -1.54790344736216
H          -5.87340321373130  -12.10166775292788   -0.99741970485907
H          -3.04864326369151  -12.18908200355124    0.19342065430898
H          -3.79997366905351  -13.45077015374681   -0.78805697773128
H          -4.42041660160567  -13.10284838560845    0.82834356105747
H          -6.80677094617695  -12.59366298442855    0.99837132517920
H          -7.80121202146937  -10.87393833311008    3.34013891138057
H          -8.09559620437294  -14.42784407252240    1.58543276864520
H          -9.49330290041624  -12.04945817661668    4.91987047988899
H         -11.28817057251285  -16.72932870779477    4.56205949624569
H          -9.84785247409675  -19.08743330929580    1.23611355503352
H         -11.74916944825021  -20.33550344118434    1.55822339954812
H         -13.13192501695210  -22.22206433588228    2.32629366672646
H         -11.79077040242581  -18.75311423559160    5.53566644801713
H         -14.32323943188462  -20.80667081194477    6.84162921096821
H         -13.02912781653270  -19.63784005761941    7.19584626286156
H         -12.84513942745182  -22.42752279502388    7.25240867731906
