95
 SCF done       -175.523522075013          0.000901901305
C           0.78567840484134   -1.77623227829309    1.72974622495119
C           0.99238012415080   -1.35362150434035    0.48504765309887
C           0.40089234787965   -0.07970185662425    0.13396670884911
C          -0.29312665147470    0.52861904553668    1.11478975179431
S          -0.21741676048165   -0.54509941555271    2.57554169704937
O          -1.51835500586221   -1.06685896690089    2.89084846122283
O           0.51723298424579    0.08829131489098    3.63497405538634
C          -0.99799759467773    1.75130588278932    1.19418663054593
C          -1.11679824034156    2.64825659733286    0.18460745839630
C          -1.81020286336511    3.87861259874753    0.27648467232837
S          -2.64105395834279    4.44198883688461    1.70532088257264
C          -3.13411300213485    5.94212988254769    0.94546123216867
C          -2.66613550319511    5.98015616671489   -0.36651328213768
C          -1.93375804378609    4.82490360980438   -0.72581743764163
C          -1.46325593519314    4.89754623453605   -2.10696724710566
O          -0.80791420531613    4.08418706265315   -2.71309683944331
C          -1.97270767837511    6.22665835352841   -2.64172184022685
C          -2.72493380261290    6.90031025612968   -1.50150333725706
O          -3.24909822993534    7.98881377218240   -1.57108529595242
C          -3.88713040372405    6.85406578663565    1.72001589801448
C          -4.29774932726892    8.07672602850387    1.28480111116604
C          -5.04251410774400    8.95927912236108    2.10118835230718
N          -5.43253290233249   10.21510730846138    1.70279527597333
C          -5.10960625716470   10.85912187786040    0.45209456295811
C          -3.68164917572465   11.39814819818304    0.44366315713160
C          -6.16556010247688   10.88618511689677    2.70337806346264
O          -6.61293113511766   12.00400472928238    2.57475738926355
C          -6.22089830480260    9.93268733672761    3.79279408133485
C          -5.52989815871642    8.76748250820794    3.39666863011622
C          -5.61438700296864    7.82247444218822    4.48727149160451
O          -5.16936955972903    6.69826259517021    4.61910927122817
N          -6.37596741551280    8.47659169209139    5.47370044194121
C          -6.57460493135904    7.83029311495919    6.75093282423538
C          -5.71363609083596    8.45108588110079    7.84720779941392
C          -6.73964577696472    9.74551100816099    5.07499435433558
C          -7.49850032286248   10.72998987299239    5.75533174640129
C          -8.18908811171096   10.60587165119040    6.91762828274897
C          -8.91549413568139   11.65888298043901    7.52661841941110
S          -8.86297529799375   13.29229460693662    6.93459911128136
C          -9.72307069900240   11.55169203656214    8.66216023432254
C          -9.94859053368540   10.27801889439468    9.37425984021196
O          -9.45563812088650    9.20764640469052    9.04974906975994
C         -10.83089426021864   10.42376988493946   10.51615520770680
C         -11.27597105924180    9.47652565110717   11.41283599773198
N         -12.08184095087369   10.08307735055564   12.31597709964343
C         -12.79963936652677    9.41368128838854   13.37128734195915
C         -14.17668961552567    8.95760829990135   12.89297280413427
C         -12.18114104282919   11.40070725185846   12.02066472507950
C         -11.41300983334549   11.66097464964669   10.90588814303533
C         -11.19804774179880   12.92010478468620   10.21408561448297
O         -11.72520924262490   13.95953940263592   10.57744730140442
C         -10.29892607085667   12.79222461727517    9.05079745023998
C          -9.91052460386096   13.84043863110610    8.20767922327753
C         -10.16902720063286   15.22646291343977    8.19224786350536
C         -10.89019621935541   16.10006976278666    8.92687006975354
C         -10.81801556235979   17.47712804072298    8.52548739783681
C         -10.04172489847512   17.76274658953657    7.46329337685250
S          -9.33979015778199   16.19758502804029    6.89444891068036
O          -7.91409299427938   16.17677640698175    7.07811335050972
O          -9.84407200902320   15.85187110981893    5.59450912912266
C          -9.71329528154120   18.97043895165740    6.77630570664753
C         -10.13985500107000   20.19112090782322    7.10620723332356
H           1.12311652638610   -2.67383089567964    2.20391944472637
H           1.56293810001152   -1.89506843020586   -0.25406767655716
H           0.53236548839754    0.31979963803249   -0.85873572294368
H          -1.45980318885861    1.95498720784210    2.15240139449281
H          -0.66006889325429    2.45879260384470   -0.77786500890905
H          -2.63083531804842    6.07471412087552   -3.50030247368788
H          -1.14915222431167    6.85435858199832   -2.98901322679424
H          -4.13162040329019    6.53430143883817    2.72521086596566
H          -4.05186451434927    8.39810682540704    0.28362271882502
H          -5.81621984495447   11.68737915546685    0.34931279292252
H          -5.25789480000264   10.15747876249063   -0.37248763488293
H          -3.54532316195161   12.10768959079791    1.25629641086724
H          -3.48866283425671   11.90378319908032   -0.49800454150379
H          -2.96240476072204   10.59058896833273    0.55756317697972
H          -6.27260026254909    6.78944957273225    6.59794715142007
H          -7.63197088836705    7.84365169046282    7.02289265006917
H          -4.66012452142274    8.34239022089765    7.60010397774773
H          -5.90629952982403    7.94477597631853    8.78854412274955
H          -5.93482873791663    9.50832059223568    7.97025956051259
H          -7.52840640594957   11.67943004483737    5.23195173190535
H          -8.24519356953695    9.66942368276729    7.44923424834732
H         -11.05869512436246    8.42778350958430   11.45608165086468
H         -12.90558703353829   10.10360806669409   14.21245285410479
H         -12.21265895607138    8.55157240558637   13.69772878049862
H         -14.76404230398650    9.81064006204792   12.56192683928030
H         -14.70571790234019    8.46209181930996   13.70188215341412
H         -14.07812253358155    8.26295864774461   12.06236164833381
H         -12.77287858563211   12.07355330492445   12.60893012323121
H         -11.49241482597608   15.80615798029582    9.77065943067963
H         -11.37644173175211   18.21591918213712    9.07851404448050
H          -9.05846020133089   18.82817600589259    5.92661155621982
H         -10.78999082624867   20.35930625117009    7.94771620550760
H          -9.84784162979119   21.05718990775655    6.53928724756887
