104
 SCF done       -200.430230795099          0.000465443213
C          -7.65212094777358   -0.22165088747585    1.42899117469906
C          -7.28290225885880   -0.24824683077672    0.14984931606952
C          -6.42591900396782    0.82964695576734   -0.29646112756888
C          -6.09987905531225    1.73361229190466    0.64830003814157
S          -6.91254531741734    1.23059973568710    2.19057998094889
O          -7.90141378249009    2.19715480827244    2.57757661338676
O          -5.92338789631884    0.86548341290784    3.16591235255836
C          -5.28893697983105    2.88601927480742    0.68142307270417
C          -4.46919772032104    3.29595783375864   -0.32461628523535
C          -3.61822140096495    4.42477700137623   -0.26353707715257
C          -3.15501181495979    5.17807658981202   -1.34134466243504
N          -3.33428438472195    4.92956613846026   -2.71360365937262
O          -2.87012936748233    5.74352508196871   -3.49196988570484
O          -3.93450540344388    3.92215205434705   -3.05548857044637
C          -2.46805570392136    6.33764796757395   -0.85301933113132
C          -2.52514391870503    6.33680547545357    0.50644324445796
C          -3.18221675798917    5.13860608873691    0.94387086854936
C          -3.16370914584077    4.66312456179722    2.24410298117253
C          -2.99568461586467    3.29948572983905    2.62962016025554
C          -2.59970387072432    3.25584450755199    3.93877165973533
C          -2.57454418768404    4.57850500496335    4.46015877996194
N          -2.17031003406921    4.87078617341804    5.78319352915658
O          -1.86886209534696    6.01808299728585    6.05083211880282
O          -2.10919242152569    3.93708686769931    6.56068566206819
C          -2.99030221084250    5.47937165507174    3.46779575921155
C          -3.42956746536319    6.78945275690041    3.69286181842516
C          -4.17101233222115    7.53830918484827    2.80335420090741
C          -4.63429365166337    8.82754525118101    3.08292496787341
N          -5.27839410282213    9.62843632587504    2.16580156546323
C          -5.53330911425583    9.32523733163266    0.77597223295366
C          -4.29852391244910    9.55061569567208   -0.09114234151156
C          -5.61915440433302   10.87657601682257    2.69980326050787
O          -6.17714173847550   11.75315212518872    2.07213308408612
C          -5.17632266558717   10.81128473626886    4.08248184781296
C          -4.58217974898468    9.56255803378961    4.28781017397406
C          -4.22901723413703    9.45785908408381    5.69747912085196
O          -3.74000371788899    8.56292231852575    6.34235876697337
N          -4.63189946646848   10.69163504067541    6.24557981324409
C          -4.39593750613365   10.99432184607937    7.63959181156652
C          -3.17916190906103   11.89413419684531    7.83116978380061
C          -5.18812320669083   11.51734143037275    5.30863083435419
C          -5.66391639063538   12.80664818205299    5.59643694465917
C          -6.18904729828077   13.63030001489458    4.63284857840697
C          -6.57516987666214   14.97815109557520    4.76920847123333
C          -6.13853588226654   15.97535683293314    5.65283839186237
N          -5.40392078424963   15.90264489127944    6.85150460112863
O          -4.80942960718989   16.90858328333864    7.19438230795337
O          -5.41295502296683   14.86889272325091    7.50362683989210
C          -6.44757773483438   17.26038743668916    5.09834761270843
C          -7.12276340345207   17.09710968269535    3.93179888921187
C          -7.32895014878890   15.69414510127870    3.70974575411245
C          -8.18669803453383   15.11523487567113    2.80180184131896
C          -8.50549422613255   13.71727067266655    2.66312425191427
C          -9.14810384570137   13.52919647852432    1.48874290960203
C          -9.30638253465999   14.80923408271564    0.83422624787872
N         -10.07332976562322   14.93496273552491   -0.34434523080008
O         -10.66311207784402   13.93706213161112   -0.71866083417646
O         -10.12719679921103   16.01410799606846   -0.90595623368334
C          -8.81602982031262   15.80817665591196    1.65076129137217
C          -8.96176229344198   17.22426496714212    1.51027003161768
C          -8.70827945202267   17.94793759182562    0.39387272894602
C          -8.88230400421186   19.34899463052521    0.30618468515646
C          -9.65861473724598   20.22004483937248    0.98609625762148
C          -9.53587359900414   21.60409624079306    0.62686171064038
C          -8.64395679478278   21.89313332207466   -0.34067231701766
S          -7.89433338348396   20.32682407718180   -0.86375387730131
O          -6.51341214533458   20.28251390023956   -0.46605664661487
O          -8.20226049778377   20.03164320937672   -2.23134096155270
C          -8.22354198867760   23.10927784479640   -0.95691944144021
C          -8.64265787628618   24.33277335202452   -0.62407594171071
H          -8.26525547703825   -0.91236492784760    1.96898248321818
H          -7.58339843249693   -1.01118409955302   -0.55184543637370
H          -6.11006545345602    0.88045695513989   -1.32625780581971
H          -5.35281859583342    3.44871494143278    1.60382385070528
H          -4.49749497006369    2.77669103409258   -1.27344142979877
H          -1.99521196430061    7.05997575417766   -1.49098194317832
H          -2.04089937300232    7.02991010019154    1.16759050739936
H          -3.03953186686982    2.46317802922215    1.96021325186730
H          -2.33203658575936    2.38386944754742    4.50496236761398
H          -3.21666869670399    7.20346322446777    4.67235804299150
H          -4.42698172969038    7.12011032259583    1.84109255736955
H          -6.33049018195657   10.00346815660613    0.45976567932456
H          -5.89153840153326    8.29657404199175    0.68783374300613
H          -3.99451846581151   10.59311633994469   -0.04094019271491
H          -4.52717341358137    9.30623868834980   -1.12430265005161
H          -3.47157924271165    8.92753626325472    0.23969444144840
H          -4.22270639455157   10.03184131435230    8.12851542018727
H          -5.28726197634232   11.45839964911849    8.06807553374806
H          -2.29848099923253   11.43481783284564    7.38893597739841
H          -3.00071028914883   12.03542409115337    8.89276080101304
H          -3.33737441306366   12.86915915085788    7.37803988771394
H          -5.60838317494648   13.14268622995874    6.62015537758715
H          -6.27267053326807   13.23379738317499    3.62909124832499
H          -6.16163402132171   18.18394267478829    5.56560664721646
H          -7.45870525741533   17.88714853255026    3.29293579130082
H          -8.29035671130844   12.95670990748584    3.38438594604307
H          -9.51600572816117   12.60955843365995    1.07669516745843
H          -9.30551531851328   17.74060033988306    2.39828286562060
H          -8.26824427386399   17.48233468662609   -0.47571471292836
H         -10.37315603624363   19.92366522754362    1.73891652173327
H         -10.14801764057728   22.34127737997429    1.12248814237989
H          -7.50201759528554   22.97297307635219   -1.75152999181181
H          -9.35633750061358   24.49613305851008    0.16536983916365
H          -8.27981678693790   25.20603604596107   -1.13641444507180
