109
 SCF done       -215.920014906436          0.000295638912
C          -1.45884718464493   -4.26849152821007    5.51295567612470
O          -1.97361480524046   -5.30501902758103    5.14654899979532
C          -0.51414509469531   -4.10001526025363    6.63997263680468
C          -0.36950613997127   -2.73776390168512    6.93451591814926
C           0.50543844268212   -2.31827105487751    7.91760552613889
C           1.24531523080879   -3.28089328624648    8.59701732445399
C           1.10218458102516   -4.64407021347290    8.30126713948654
C           0.20654347435799   -5.06080992205199    7.32145829839872
Cl          2.03826505276427   -5.81273333991025    9.13220154066766
Cl          2.34916163120711   -2.79143898084507    9.81157127693642
C          -1.21802168005873   -1.93007153337943    6.01750121365294
O          -1.39880771622327   -0.73743255840875    6.04189393186209
C          -1.71625297470166   -2.90226852921713    5.01662287322347
C          -2.24890471469445   -2.56842186734556    3.80778850523591
C          -2.26316400975622   -3.47002083660163    2.71632002738085
C          -3.24679691688818   -3.71201622200795    1.75779012639617
N          -4.45960955150266   -3.02063043605427    1.62132430483748
O          -4.68740523921600   -2.10232306741126    2.39254121381695
O          -5.20999355514353   -3.36748953956880    0.72469257743113
C          -2.86808111008590   -4.84347838953598    0.98077721878850
C          -1.66545950112386   -5.31465141056080    1.45241295992164
C          -1.22525230188710   -4.47494341208146    2.50014782690170
C           0.01123658436738   -4.46614364861568    3.16983046889103
C           0.74486425312396   -3.31756932393035    3.53402729419936
C           1.88132896313929   -3.70795282821699    4.20938988370730
C           1.87426905279294   -5.11143614058129    4.35009242859806
N           2.93027035136027   -5.78990435245380    4.97504132582174
O           3.04364016512187   -6.99458645780691    4.80833483297213
O           3.69936280244146   -5.12011662960069    5.64681038017101
C           0.71244298352103   -5.63015077972456    3.71818435229973
C           0.03327873105220   -6.84207613221022    3.82445415222311
C           0.29602158722754   -7.86928915437778    4.71135979449522
C          -0.46435721348336   -9.01232610161418    4.93623991378971
N          -1.50452933459054   -9.56834498205815    4.22776970873339
C          -2.14100338436318   -9.08480965203979    3.02337627430796
C          -3.24091604208628   -8.07018818895512    3.33197733918900
C          -1.97051970307602  -10.75726518678871    4.81785508469278
O          -2.86154079560221  -11.43900329256734    4.36348026630836
C          -1.14229736434952  -10.92187265358110    6.00209067557181
C          -0.24433488016962   -9.87075199539547    6.04990381069248
C           0.55065577778334  -10.01420680514290    7.25949052293717
O           1.41342459617761   -9.32405584322205    7.74733027822391
N           0.08231788711489  -11.21233610437079    7.84474894360509
C           0.64322981410328  -11.65168494544119    9.10106932172418
C          -0.24786972818311  -11.28016247761156   10.28366925738996
C          -0.94501799610501  -11.77166964472178    7.12182147958471
C          -1.71283632750757  -12.91663128509717    7.31804908100111
C          -1.67515776791297  -13.85832558987528    8.32795047908943
C          -2.53398074419119  -14.95512341875649    8.39170210616886
C          -2.54734268958456  -15.92077609452456    9.41319880633447
C          -3.55850277297229  -16.84664163584398    9.16702815190072
C          -4.20352259751018  -16.43239416572233    7.90247962556951
C          -3.58443653366954  -15.30983082633380    7.45108437592372
C          -5.25909906660380  -17.07854036709952    7.25269243270825
N          -6.12434232201546  -17.59902821695959    6.70204330312651
C          -3.93455355857386  -17.94940078392217    9.94746677740325
C          -5.02003716390311  -18.81033125448448    9.72062260988322
C          -5.06747127342677  -19.76642091757175   10.74036888493347
C          -3.97069690232978  -19.50569564340653   11.63081353261035
C          -3.28555767453159  -18.41382918229170   11.16874480030638
C          -2.15336505491332  -17.86420568316911   11.77637153893630
N          -1.22522955878014  -17.43153972976285   12.29886753962935
C          -6.01213015308996  -20.79920767193599   10.91384473786800
C          -7.06158752940768  -21.00387926767975   10.08909708125796
Cl         -8.17516782280883  -22.29816952277646   10.37754425871002
C          -7.30157589662760  -23.78798652210659   10.02141743454203
C          -7.08513755556617  -24.68002936344156   11.05642531307417
C          -6.38675859342254  -25.83825518410431   10.76305436153348
C          -5.91496229721314  -26.08295781137146    9.46290282485419
C          -6.13318868153264  -25.17708248533857    8.43857800961837
C          -6.83835321753088  -24.01211072563362    8.71791949790187
Cl         -7.14464639060727  -22.86415822632605    7.47626162218253
C          -5.20923384893432  -27.39067081037035    9.41724740753873
O          -4.69168559265566  -27.90529628566681    8.45740195181883
C          -5.28283506554127  -27.92681053967869   10.80584584062347
C          -4.76688942575521  -29.08570222656578   11.21560799915507
C          -6.02364822463228  -26.96132906120970   11.66469633325628
O          -6.27948927477769  -27.06103480906621   12.83845155345125
H           0.62017128533199   -1.27100546621874    8.14903253720142
H           0.09432279764374   -6.10966763931280    7.09403229953043
H          -2.64661982980310   -1.56902167376980    3.66530030706254
H          -3.45164200705103   -5.23704189104839    0.17017443221659
H          -1.08962199102135   -6.11168383871116    1.02038637152646
H           0.49099068544195   -2.31251349109911    3.25526573944690
H           2.66722759424425   -3.07313485822812    4.57284292706275
H          -0.86653344223499   -6.88833230888938    3.23389278878734
H           1.15353580617643   -7.79146014802746    5.36656176374371
H          -2.58726541272951   -9.96292308674785    2.54582617156328
H          -1.38119896335672   -8.67581258481369    2.35455030899670
H          -4.04174412860402   -8.55831664839361    3.88188463095013
H          -3.64854833793111   -7.67738241984344    2.40459695604320
H          -2.87183520783562   -7.24126019026289    3.93167701751626
H           1.60240484892762  -11.13393472060552    9.19615610200280
H           0.83270414938649  -12.72681489434258    9.06041926553905
H          -0.33361951353272  -10.19864206850196   10.35394974979173
H           0.19002686914997  -11.65348409331557   11.20513800447145
H          -1.24606092110583  -11.69861330706644   10.17426123172101
H          -2.44880986364981  -13.05398743217780    6.53635401000149
H          -0.96412421349755  -13.77375964440662    9.13589964339401
H          -1.88720147528479  -15.93135697478891   10.25860130651916
H          -3.82950115228252  -14.77646853130308    6.55212876010319
H          -5.70382195143026  -18.73397637386269    8.90023096652520
H          -3.73731652615711  -20.07554093968507   12.51139619131361
H          -5.87096132868448  -21.44933252116379   11.76890981168551
H          -7.29145098607362  -20.43276032044205    9.21012779952509
H          -7.44910374077012  -24.49560259478583   12.05555145497421
H          -5.76838411812694  -25.37662237125664    7.44289860768046
H          -4.24212164945143  -29.72997402667271   10.52872926182982
H          -4.86340872353594  -29.40234999387458   12.24166840363192
