75
 SCF done       -155.650793164451          0.000292753469
C           1.04366052174764   -4.59306807508448    2.29059956633388
C          -0.19508670207034   -4.53552392299477    2.82757185447790
C          -0.60877815471896   -5.05178655014754    4.16827771909972
O          -1.55739478547682   -4.65006807279204    4.78148353263497
O           0.16768387859994   -6.07260505494583    4.56456162548228
C          -0.14437683227082   -6.61456146561627    5.84185934372771
C          -1.24026945881269   -3.97408718585088    2.05967059046210
N          -2.07154086625343   -3.53900077712104    1.40159114514096
C           2.25389137330612   -5.08801607181783    2.87981011704086
C           2.78910181826059   -4.90559200621990    4.14251277937110
N           2.26005805419073   -4.17702446993591    5.22531063738744
O           2.85002249113172   -4.25683879378407    6.28830512719392
O           1.26310937419927   -3.49927277135563    5.04459265165083
C           4.09298352498517   -5.51787140807936    4.20870332596843
C           4.39306875625241   -6.02149272988710    2.98880981963513
C           3.27624244172089   -5.79136217354473    2.10631160864728
C           3.13180259380407   -6.28099928845734    0.82235691865915
C           1.91258084621982   -6.65209542421641    0.18988207562664
C           2.19516287421398   -7.39239589600890   -0.92591201197308
C           3.60800899132987   -7.45587160438208   -1.10228603627038
N           4.21413388680249   -8.09734003755396   -2.18506838913177
O           3.49091773054051   -8.63589610318164   -3.00373050299734
O           5.44352620899160   -8.10174036611713   -2.26413694503313
C           4.22493538328870   -6.72434268923946   -0.07047533411656
C           5.56876618783566   -6.36283391310332   -0.06575402575855
C           6.19723607221827   -5.36246981745682    0.64309177449033
C           7.56050414093957   -5.10792444491285    0.51201895624232
S           8.30377210689302   -3.81633188373280    1.44084958204741
C           9.90045366917944   -4.10433881543858    0.80986927645544
C           9.86043054360945   -5.16911534814740   -0.10833131900242
C           8.55655901494407   -5.72232527031727   -0.26863819655725
N           8.63007359899107   -6.72635683976464   -1.17413989922669
C           9.93709022743579   -6.82762921176180   -1.59699694740531
C          10.37706102935927   -7.77120467663108   -2.53720856387004
N          10.79825229364463   -8.52107859007565   -3.29562790020474
C          10.72497155404828   -5.88914512721543   -0.96089066759088
C          10.97141451075909   -3.30809539366219    1.24720136813751
C          12.25761894641354   -3.45651560116526    0.82091059341008
C          13.35010049106448   -2.67160095098462    1.23851767404136
S          13.27326107651906   -1.36314551202556    2.37190159937448
C          14.97765677147422   -1.07091013664540    2.22591294578918
C          15.70109384627636   -0.01232644154835    2.95994841916750
O          16.88299622844292    0.14285762203616    2.82169300609252
O          14.97915371139905    0.75935998787344    3.78040607254086
C          15.57626270754075   -1.94105250212761    1.34561039164275
C          14.66589165960068   -2.84592488914738    0.78511296481615
O          14.87339531599010   -3.83772094401681   -0.10957745786483
C          16.05517491039167   -4.13881272896563   -0.62868935454519
C          16.16939518811060   -5.15283823121822   -1.52207426999938
C          14.99639469027822   -5.95702541471562   -1.95233145816661
O          13.86789600859329   -5.77979955144768   -1.55354116714905
O          15.34360713042683   -6.89207772454460   -2.82710376517908
C          14.30457865478567   -7.73091452548863   -3.31623202868187
C          17.42947815181054   -5.47085860190064   -2.07067089367847
N          18.45304314829322   -5.72911862506859   -2.51561483860107
H           1.15403954563676   -4.23623661756988    1.27083160990457
H           0.02514354041791   -5.86730642270001    6.61998813554995
H           0.51635836101434   -7.46712622253407    5.97785082477921
H          -1.19047373376462   -6.92457152327301    5.87602874946450
H           4.68714444365694   -5.54251605822975    5.10183112544447
H           5.25837816491395   -6.60026713973923    2.73066081996296
H           0.93545836353880   -6.49363540343115    0.60269563715090
H           1.49095488741540   -7.86951155284817   -1.58166213821561
H           6.15943981394579   -6.89473866140667   -0.79448229304784
H           5.63645278823070   -4.71861149476068    1.30511877010325
H           7.87896633123501   -7.29610073630177   -1.53785977360299
H          11.77741524778593   -5.77060876050043   -1.11733902682285
H          10.73806888383946   -2.53395012281742    1.96787063628954
H          12.50954121419510   -4.22466768597798    0.10505494853599
H          14.03878851748762    0.53620013207832    3.80548205043599
H          16.63101619302180   -1.88756337933895    1.14593147986371
H          16.92760106282647   -3.56660949509995   -0.33061069684301
H          14.77817790489410   -8.42197935003837   -4.00716559507782
H          13.54284347055708   -7.14021581426073   -3.82841252634435
H          13.83170746219350   -8.27417664949678   -2.49597582737663
