82
 SCF done       -150.199595393656          0.000503667661
C           1.11012429278934    0.20325451403467   -0.52473085023941
C           0.09250428883059    1.10960443779770   -0.45908412833914
C           0.14262165330397    2.56088748262136   -0.17203299711257
O           1.10372554620585    3.19801237344313    0.18592111982174
O          -1.06607712298930    3.10379850143992   -0.35861163177438
C          -1.17449953383259    4.49604311859667   -0.10913577063709
C          -1.20800220123998    0.60757526697385   -0.70195220778278
N          -2.24893140138910    0.16831649294546   -0.89808888300867
C           2.51177613342281    0.33159993063552   -0.36524707183869
S           3.46253662496801   -1.12223125795957   -0.60440413551639
C           4.94761707573791   -0.29175020393627   -0.28369984195815
C           4.69580892490680    1.05913737941902   -0.01390203289559
C           3.33564985321721    1.39536400680598   -0.05831082638497
C           5.68169335383810    2.03791641149751    0.21234787935532
N           6.44273389428570    2.88202262641395    0.36578945067308
C           6.16524760725657   -1.01737731658783   -0.34243615798536
C           7.36153939487846   -0.56470257714338    0.11315577996810
C           8.62347252226033   -1.21307395447289    0.07140197803665
N           9.03967046920724   -2.27206640216208   -0.70463130276813
C           8.30586963780855   -3.00714391531751   -1.70566979856660
C           7.61700389901378   -4.23660697391177   -1.11523497897234
C          10.39615883895119   -2.59886881052623   -0.46808392853035
O          10.97285016892113   -3.49409875491008   -1.04567634451814
C          10.81877052456293   -1.65113372269857    0.53549799438714
C           9.71517434882557   -0.82002580145732    0.84157246374009
C          10.13193057164377    0.11106983220415    1.86390104690754
O           9.55993027677768    1.00367280572523    2.44773225515341
N          11.48848415185738   -0.22680578891405    2.10835713663951
C          12.25601856554774    0.56517939299688    3.03737402257847
C          12.10646104932367    0.06144590737585    4.47232915637300
C          11.90178749947141   -1.27572978292159    1.32329754520712
C          13.18524991070478   -1.89230870443665    1.25344339591887
C          14.14563957428882   -1.89144177168930    2.19713308656507
N          15.37691022099204   -2.49770495334191    2.05511657989462
C          16.19908085853802   -2.82491276780295    3.11813258293585
C          15.83062448258046   -2.59789893924492    4.53271942534266
C          17.33763322483221   -3.39125746355500    2.62083342706627
C          17.24925874624105   -3.42602314386442    1.18322749255901
C          15.98831007278860   -2.83973997710110    0.79749582352947
O          15.50156225105658   -2.61180643875343   -0.28059677527138
C          18.37473327931071   -4.01229889872305    0.68559265546970
C          18.74386064510643   -4.29470047430304   -0.71619279041277
N          19.17590998040263   -4.37432885863638    1.75512749263585
C          18.58818369250285   -3.98717151554116    3.00828006454341
O          19.13462295613198   -4.12000157710552    4.07679442158280
C          20.42232238932301   -4.94388451376394    1.63992735896000
C          20.95787970660091   -5.78030778475497    2.54918265005418
C          20.16642133861879   -6.37989883932249    3.67607052143185
O          19.05790982619508   -6.82793327411585    3.53060427852596
O          20.88169670453789   -6.43361123225868    4.78927779623271
C          20.22861237681192   -6.97446032392246    5.92852105391789
C          22.29025402432662   -6.21940458413178    2.42449339564626
N          23.37089738045521   -6.58935266911658    2.32404522722311
H           0.79683011567642   -0.81129589058936   -0.75590551302603
H          -0.53950659752255    5.05579001477526   -0.79942367723942
H          -0.86742001363047    4.72360704448663    0.91393571280813
H          -2.22040567967500    4.74773647583190   -0.26169085229869
H           2.96510226159851    2.38685895467943    0.12890509269002
H           6.06716686341850   -2.01542403270871   -0.74149741792080
H           7.39960896995768    0.39107073218964    0.62014970207913
H           9.04431840710794   -3.34021112679215   -2.44191219894170
H           7.59590276778727   -2.33948356408748   -2.19823883220986
H           8.36837859836723   -4.92517173303474   -0.73743190459381
H           7.03733895460055   -4.74154049158434   -1.88320670773682
H           6.95704616121655   -3.96744855179766   -0.29291644408333
H          11.85464130970316    1.58216725980943    2.98343972251742
H          13.30021544708984    0.58102070005181    2.71689093357008
H          11.07135118455207    0.16978781465829    4.78540595796662
H          12.73319889468257    0.64741618918268    5.13944580104559
H          12.37835976951949   -0.98903564411241    4.55777651167203
H          13.34203356837027   -2.44765082783532    0.33907988844172
H          13.99715977368058   -1.44182084738992    3.16686621077453
H          15.71358361037203   -1.53374365255946    4.74174251102739
H          16.61977809660549   -2.99323641459733    5.16635931195999
H          14.89336335189662   -3.09987331510091    4.77338042364006
H          17.91845655799840   -4.01387612011562   -1.36457643099359
H          18.96685048723765   -5.35342333514767   -0.84726601125812
H          19.62830556243940   -3.72574532542213   -1.00614071804382
H          20.99648757961339   -4.64449839865760    0.77041145439393
H          20.99130855942935   -7.07362067891637    6.69646419659160
H          19.78937237309641   -7.94528483640147    5.68877961330565
H          19.43905851403269   -6.29508691133114    6.25558955954966
