104
 SCF done       -198.051098216587          0.000441326856
C          -0.24146421644055   -4.93210054824746    5.69866744352337
C          -0.72173760632719   -6.05282682843489    6.32694853243838
C           0.11323578816519   -7.17116570599807    6.53641865726099
N           0.79697651207886   -8.07687061772809    6.70165622602623
C          -2.03095388879942   -6.21151134152371    6.81544753324280
N          -3.08379002571527   -6.40027827166055    7.23277197951888
C          -0.91737924201201   -3.69890957267144    5.38989939842381
C          -0.07688493309452   -2.76900028640145    4.74134437750162
C          -0.58337978078569   -1.52594889109653    4.36770407794493
C          -1.90189237395060   -1.22113177722057    4.64030983967268
C          -2.72703739582176   -2.13864138360230    5.28266401520738
C          -2.24544865716498   -3.37672390153047    5.66030626887933
C           1.26611037663048   -3.25076250602828    4.52915324208309
S           1.41795496922678   -4.88320020634196    5.15287335331567
C           2.27929693857772   -2.54120521855515    3.94945002503913
C           3.60563144704669   -2.92895383241693    3.67984368854782
C           4.56298646277840   -2.07101544977051    3.15347917403848
C           5.78920452974095   -2.75666559843103    3.02305854683067
C           5.53383640787208   -4.14264538063716    3.46677720363151
C           4.23670708416855   -4.23188582998766    3.85590331506999
C           6.42010597213019   -5.22633234464149    3.39576529610482
N           7.09053111664558   -6.15393038720856    3.30805549959561
C           7.00209598160277   -2.25018419540607    2.58704587598724
C           8.26097324341263   -2.88977692858443    2.61182242593540
C           9.21817268272378   -2.04286876824845    2.05840164473048
C           8.54330886886964   -0.81626696288477    1.66914027245601
C           7.22738582022111   -0.92057057673730    1.99925102047606
C           6.26710795139327    0.07171420142868    1.77496600494534
N           5.50024139204672    0.90447481783812    1.57882671483723
C          10.58275869531102   -2.38356469168992    1.93996628283885
N          11.54405926709232   -1.73317643744477    1.21275900123475
C          11.39343124429551   -0.57197343816304    0.37849880194835
C          12.79912946204636   -2.38589624349420    1.28339228893644
O          13.77851395460886   -2.01406595537427    0.68106194124802
C          12.55952623269268   -3.50421713619106    2.16997345370410
C          11.20991052283602   -3.49367732229136    2.54376931767719
C          10.99950606732271   -4.60344174746165    3.45805051176388
O          10.04175277105665   -4.96236002315200    4.10182453509416
N          12.25320855301200   -5.25650205137195    3.50908673053381
C          12.44563943940329   -6.37593407347598    4.39102189285687
C          13.19944786429315   -4.60631494477582    2.76483076206698
C          14.56455639886471   -4.91199130816717    2.60552910229779
C          15.17362943558414   -6.11632355017881    2.80473098535466
C          16.56308518885654   -6.35058678194595    2.66071437668652
C          17.65015875021672   -5.55105606037895    3.01155602157479
N          17.66350987587000   -4.30802286995750    3.67527442905932
O          18.75147514593513   -3.78836547443252    3.84912948711054
O          16.60958572728694   -3.83178306831286    4.06337310565713
C          18.86422402321660   -6.27126785503597    2.76014706682155
C          18.55547159556737   -7.50837976047475    2.28733709024980
C          17.13087406464977   -7.62006541598823    2.18206586471094
C          16.42443671033550   -8.62240671504626    1.53841228886217
C          15.19668912316405   -8.44960753701860    0.83200142249944
C          14.97113188572275   -9.54947909029447    0.05508318928412
C          16.00822699439408  -10.50166009020414    0.28785575824886
N          16.02786966590890  -11.76105264593800   -0.33044878584559
O          16.93845505121081  -12.53483016329432   -0.06940125676555
O          15.12744283408025  -12.01293209706029   -1.11304810850138
C          16.90417475285372   -9.98455653846353    1.23175011101061
C          17.94099243416384  -10.69356132558923    1.85939665669147
C          18.48698516371007  -10.40359704012072    3.08299942521035
C          19.53396174569058  -11.15513353769452    3.63456574467907
C          20.08143451946362  -10.92051070421881    4.86653758310671
C          21.15917871781662  -11.63266766137245    5.49596959231812
C          21.48054495082041  -11.14606546658979    6.78194258726599
C          20.64714890731277  -10.03976033339127    7.17744620585070
C          20.64553297484464   -9.32937685702229    8.35077117577449
C          21.51170685667465   -9.55356162411615    9.43587330080548
N          22.19047409506981   -9.69172523893860   10.35141011145073
C          19.71585606913891   -8.28660045464480    8.55142112334749
N          18.94659530240733   -7.45014060506617    8.70542971649873
S          19.50503158878227   -9.63701970784543    5.91533625901023
C          22.50494161796502  -11.73754552462244    7.51755477735239
C          23.19696086517941  -12.80096705032595    6.97088113663627
C          22.88121780420554  -13.28184850333120    5.70375747002694
C          21.86874449278699  -12.70689026342490    4.96252686872861
H           0.04426980814151   -0.80572787175905    3.86741045836780
H          -2.29676820559006   -0.25953609109977    4.35046784656553
H          -3.75484267253504   -1.88349828707656    5.48807749767125
H          -2.89067907339750   -4.08307002397734    6.15596604012732
H           2.04308851159909   -1.52644737752232    3.65378395436128
H           4.40702645114415   -1.03625171933736    2.91825662647183
H           3.75315576646764   -5.12268033617038    4.20897135621922
H           8.44728024471010   -3.86668989673876    3.01254879036947
H           8.99705315024995    0.04844822254870    1.22703160484672
H          10.57724445450063   -0.70411129870909   -0.33281867365455
H          12.33190673942514   -0.45734035120033   -0.16635132153094
H          11.22819022288448    0.32570576373359    0.97725157791058
H          11.59516113240133   -6.39266871276827    5.07434046174000
H          13.37102404712589   -6.26081738434437    4.95546835968203
H          12.45765186552850   -7.31833571006501    3.83902530147264
H          15.14291438631720   -4.08768686957989    2.21153396379163
H          14.57563725316767   -6.99256428625514    3.01189134238263
H          19.84026722022707   -5.86063231196109    2.93560653303692
H          19.25242239715067   -8.24922041241236    1.94826467769490
H          14.62813246855742   -7.54048096592897    0.80576865510698
H          14.16365028894308   -9.70612665732872   -0.63505297110640
H          18.26440080928025  -11.59677852987498    1.35619391387945
H          18.08878049454777   -9.58858272684075    3.67359481243607
H          19.93816586893760  -11.96521765173845    3.04308464093695
H          22.75695653636345  -11.37265610694944    8.49954579137245
H          23.99161092050228  -13.26268328429111    7.53572966944159
H          23.43427221016287  -14.11387596814536    5.29584631646980
H          21.62972187413083  -13.08540587570232    3.98152371818951
