104
 SCF done       -198.291258405593          0.000769154513
C          -1.32093834121181   -0.28336806590444    2.08178027210087
C          -2.53731735851345   -0.87156087872158    1.87393779281192
C          -3.71190819558770   -0.52084459721543    2.57643575230808
N          -4.69638221190691   -0.27039343256707    3.10813688139624
C          -2.79996390429360   -1.81561362275151    0.85805863957979
N          -3.08931345444329   -2.54124047254229    0.01744950958324
C          -1.08469600089799    0.87737024257331    2.93898193999437
C           0.11747137346687    1.49893134588045    2.54688922021862
C           0.57107437709439    2.64961957837765    3.15465540950918
C          -0.19550914666487    3.20318815196308    4.18564041478368
C          -1.38511694913287    2.57893717534189    4.59353573937115
C          -1.82766898234893    1.41082273259564    3.97866151261358
C          -2.21219015530963    3.12170909121452    5.71490281332006
O          -2.90272927149548    2.43493316594646    6.42120803921177
O          -2.09187900369317    4.44279318991842    5.82003554481731
C          -2.81674007019573    5.07217117451315    6.86872711517410
C           0.29559651012036    4.37141838409172    4.81988345859570
N           0.77425073147560    5.29771695863357    5.29445446165421
C           0.75141659908610    0.71187229813500    1.46454523384925
O           1.76320997899990    0.96252864794025    0.85661372087992
C          -0.10292462550807   -0.50023622803783    1.31949530023022
C           0.36196466213343   -1.57676146569254    0.64113348600132
C          -0.17098397337937   -2.90549822810558    0.66752119843731
C          -0.18485976672661   -3.74462782440557   -0.45854994950439
N          -0.71094999193113   -4.94313541850116   -0.44518487944688
C          -1.27750154756278   -5.36533992252197    0.69008173963148
N          -1.22646915887461   -4.68498470418892    1.83737671423826
C          -0.67274679057728   -3.50659645289096    1.83981603072853
C          -1.96966368586033   -6.62530673843824    0.74033186258773
N          -2.36306213299805   -7.36685752933493   -0.33993652520040
C          -2.14115555701822   -7.07887075761855   -1.73655756914714
C          -0.76547943737816   -7.55449123302205   -2.19278367956773
C          -3.04838861219927   -8.53291943641728    0.05497494176632
O          -3.49684384102730   -9.34333516389176   -0.72845955702936
C          -3.05511772285597   -8.47145218968364    1.50065726262943
C          -2.38522580380512   -7.28225700891901    1.89060936764590
C          -2.35868496536920   -7.23689386886827    3.34237183144940
O          -1.90364839093924   -6.45379006674385    4.14058619739243
N          -3.04069215170884   -8.41763394594260    3.72716517767659
C          -3.20564629132354   -8.75806497049716    5.11955423332714
C          -2.17107106746399   -9.78202518084051    5.58050673273546
C          -3.45101228078269   -9.15454854986440    2.64704759127036
C          -4.15507379167123  -10.38804583138578    2.76010742233878
C          -4.63636421902067  -11.06881096255091    1.70041912307364
C          -5.34049566501749  -12.32442348761396    1.86087033766873
N          -5.34020299932865  -12.90670051725449    3.06826509569492
C          -5.95521757099767  -14.06673227050487    3.17755130077796
C          -6.59612192869065  -14.67575686545019    2.10768363764141
C          -6.58029138848567  -13.97776421684195    0.89252631385548
N          -5.94174821158751  -12.81438604901026    0.78520870808805
C          -7.26404530366990  -14.48607958918556   -0.27882226200420
C          -7.42552046361755  -13.75431132992752   -1.40196217442636
C          -8.12691899884950  -14.26738331089516   -2.52736826798484
C          -8.43039434211073  -13.56038878375944   -3.65059932210487
C          -9.13781958789762  -14.04691547601280   -4.82572038347532
C          -9.59003162372887  -15.31803721620977   -5.05238578347157
C         -10.26115256084650  -15.72797975094838   -6.22660657697615
N         -10.80921306147413  -16.13351124361037   -7.14926481462757
C          -9.45577444403890  -16.41059423743934   -4.16717006360294
N          -9.39410617742804  -17.34859775540793   -3.50845015955794
C          -9.27594366478166  -12.92553782738983   -5.75358471899523
C          -8.66197774101653  -11.78914522282284   -5.19627548608888
C          -8.10990971960360  -12.12086991836415   -3.86180197512389
O          -7.54376950624522  -11.36241367065502   -3.11267728487322
C          -8.63469112592468  -10.57770532825818   -5.85235164831147
C          -9.24232506868806  -10.49095680101507   -7.10869983568884
C          -9.86636680644933  -11.61774571364778   -7.66988696826297
C          -9.88341525119763  -12.83633890260348   -6.99626950806306
C         -10.50559137734714  -11.48296539664590   -9.01099391477187
O         -10.38027251939557  -10.51891595077010   -9.72115907697998
O         -11.23235357765812  -12.55598109942711   -9.32826283465280
C         -11.87942753328537  -12.51775817380800  -10.59302942101618
C          -9.21518508742474   -9.23451082024343   -7.76652507921181
N          -9.13798429779722   -8.16966341379400   -8.18183916844723
H           1.49568919504752    3.11134757038155    2.84250116974230
H          -2.73392644026976    0.95103281251539    4.34104241553156
H          -2.39043424268835    6.06635891047501    6.97323654906194
H          -2.71219966421862    4.50349585353548    7.79431604410507
H          -3.87463714525139    5.13373025229534    6.60607587062285
H           1.26857825934720   -1.41911298397505    0.06554027588964
H           0.21744726083212   -3.41129510154507   -1.40643277679943
H          -0.58673548992936   -3.01701555067987    2.80217940083652
H          -2.24368944959746   -6.00505638443527   -1.89917033268723
H          -2.91959950863395   -7.61630382480090   -2.28525622260606
H           0.01218054352492   -7.02122813652959   -1.65287535012918
H          -0.64774779685373   -7.36550621644448   -3.25573917618334
H          -0.66010814284583   -8.62184714780103   -2.01376436862325
H          -4.22079659666921   -9.12681789308307    5.28801839049130
H          -3.07028094946959   -7.82626760442507    5.67594162919023
H          -2.25952672288714  -10.70815971080374    5.01723292253659
H          -2.31389842921459   -9.99858326695601    6.63552379414232
H          -1.16901470529869   -9.38434911162855    5.44015124836690
H          -4.31833813194136  -10.79672638439538    3.74722907695471
H          -4.52944252160495  -10.70989972019925    0.68659051762529
H          -5.93288072264363  -14.52310905404217    4.15958328341221
H          -7.09267452987026  -15.62689542088588    2.20835298268807
H          -7.67390515146928  -15.48587573229579   -0.20401361454099
H          -7.02385302825857  -12.75199623895776   -1.43824545031417
H          -8.44329813020674  -15.30110730810510   -2.45924412750615
H          -8.15706903890778   -9.71936000500769   -5.40452424350240
H         -10.37047458192192  -13.67779211746446   -7.45981675511325
H         -11.14614031116976  -12.37492326304408  -11.38902210580234
H         -12.59660868125945  -11.69518940032020  -10.62531058634284
H         -12.38494292138351  -13.47357487049778  -10.70073665098464
