98
 SCF done       -204.691872287001          0.000415870104
C           2.24301602405083   -6.93937102574251   -2.34273991754887
C           3.26311472693572   -6.25850888968604   -1.74030201325187
C           4.31106058103353   -6.88063230710667   -1.02764399768087
N           5.17433117127732   -7.34569483471531   -0.43409731839297
C           3.28138166426533   -4.84818104740676   -1.66946162347179
N           3.26624682516223   -3.70659193067605   -1.56022289488633
C           1.96984685490571   -8.36787431923442   -2.20966173475880
C           0.60009671294461   -8.59196914864611   -2.45755683312795
C           0.04630069720555   -9.85051096191506   -2.36591950187434
C           0.88034646300872  -10.92143711407638   -2.02524457039112
C           2.24869712938069  -10.70649253522038   -1.79494135055606
C           2.79699806159821   -9.42941668139955   -1.88871626206778
C           3.18394990776052  -11.82971490346041   -1.47587334038363
O           4.36505066060519  -11.78669349517724   -1.70169648913359
O           2.55356652474008  -12.85926440138170   -0.91863463352508
C           3.34426647367320  -13.99802973861425   -0.60195889192809
C           0.29709515493861  -12.21227595574821   -1.96906194505317
N          -0.25126997722097  -13.21798425169729   -1.96975907094683
C          -0.05060888850735   -7.31684872039670   -2.83743259948675
O          -1.21864291619824   -7.10534648214821   -3.04896834363273
C           1.07251088114459   -6.34212045088502   -2.95793542512161
C           0.89666822764749   -5.19614788453400   -3.66220411745613
C           1.86687526022375   -4.34716145251804   -4.25275185995832
S           3.44724149709028   -4.90728007818129   -4.71356438024686
C           3.77358667028319   -3.41939856036892   -5.52346934805797
C           5.07917928523989   -3.22512151378812   -6.21912907445919
F           6.12740283939650   -3.49381050928372   -5.42518096437537
F           5.20822318275362   -4.02865884872473   -7.29011548621769
F           5.22967322362179   -1.97313293203617   -6.65605078816674
C           2.74082894656942   -2.53775530063347   -5.45487570391835
C           1.63863115475233   -3.05081841656564   -4.72620155426806
C           0.44604292995595   -2.30546084889739   -4.54601623897943
C          -0.53423644167159   -2.33474734535843   -3.62063258004833
C          -1.64028301729406   -1.45188426650766   -3.84535415550744
C          -1.59267281590892   -0.69857372383506   -4.96756055480754
S          -0.01909833527492   -1.06892529692762   -5.79245178779641
O           0.85863687949058    0.06745139706949   -5.76245798898633
O          -0.21630516603952   -1.71215384986279   -7.06037196079788
C          -2.52458587087601    0.20500371849705   -5.51629604107715
C          -2.28162328693791    0.79771662482349   -6.71349162207731
C          -3.09564938805983    1.67225004526916   -7.48144342967816
S          -2.39137773645708    2.23709767569155   -8.96440376103398
C          -3.82685245888402    3.12265495053999   -9.38453883695088
C          -4.77990564742912    3.02215019784140   -8.37508164620557
C          -4.37769042817946    2.19444358002013   -7.31494007554061
C          -5.26077837624203    1.91175460284007   -6.12538119022304
C          -5.51118204771266    0.48651920573410   -6.03113083497390
N          -5.76572317921855   -0.62525227935714   -5.96874177963161
C          -6.62988220498784    2.61377794033916   -6.21158155618459
C          -6.49529515645138    3.98548299106891   -6.85335394297378
C          -6.06411018347569    3.79655700969583   -8.31385226318065
C          -5.96879910150610    5.07709649698741   -8.97335267896617
N          -5.92719454676092    6.10557680635801   -9.47071627216529
C          -3.80014187516844    3.86208129883395  -10.59693019128088
C          -4.82274849316149    4.09042563166946  -11.46694630282807
C          -4.78030350629452    4.98457239591350  -12.61417219602616
C          -3.88139740671192    5.99155821217137  -12.81845994478996
C          -3.93094989474318    6.88948118533710  -13.90912115750483
N          -3.91695968691173    7.64991817554586  -14.76694626275265
C          -2.81131259223327    6.29969407901665  -11.94796144069274
N          -1.92833006772800    6.60675803767047  -11.28324853611561
C          -5.95323436503617    4.70231014670377  -13.43547317807320
C          -6.74690508242364    3.74410238295116  -12.77716954741865
C          -6.09450221490515    3.33690762029515  -11.51664010597058
O          -6.49332939106954    2.49724309763881  -10.73570697987782
C          -7.92945682219182    3.28360851942372  -13.31436677055554
C          -8.34350229261722    3.79686034985256  -14.54780545704245
C          -7.55289336367931    4.74516553864364  -15.21639690202689
C          -6.35424761705585    5.19367651805533  -14.66662511592528
C          -7.93801096896293    5.28893394766438  -16.55498266071186
O          -7.14201404689578    5.72340674900654  -17.34573483835453
O          -9.25268413447606    5.23477204026554  -16.75337959896100
C          -9.72927230213113    5.70013816598684  -18.00943537941166
C          -9.54804887252611    3.29079133424555  -15.09657654936492
N         -10.51689328737160    2.80867058196294  -15.47276868505484
H          -1.00443713722982  -10.00755043610043   -2.55792165487064
H           3.85701193985915   -9.31054290129808   -1.72456022838881
H           2.64194725408599  -14.79278110674669   -0.36564020789405
H           3.98490440463911  -13.78222866495529    0.25520419709028
H           3.97025768655208  -14.27142673915852   -1.45311943430955
H          -0.13492528255076   -4.94611402575792   -3.89591334119731
H           2.74859773619517   -1.55308322907993   -5.88787000345237
H          -0.50122430841157   -2.94420045876043   -2.73093079021782
H          -2.45981583794562   -1.42107619971883   -3.14474333353788
H          -3.43618011766566    0.35545160995691   -4.95790064084854
H          -1.32828083781183    0.56992651789483   -7.17491858103821
H          -4.73605782832543    2.23685918962770   -5.21664604533977
H          -7.05000280051060    2.69915551756685   -5.20832875263095
H          -7.31323999876093    2.00442489987358   -6.80868290979431
H          -5.75328596322139    4.58694153640073   -6.32231095138601
H          -7.44976123916375    4.51264335703273   -6.81824275633554
H          -6.83703056933105    3.22133489734766   -8.84967011674604
H          -2.81739736611883    4.23014829457634  -10.86749105141219
H          -8.51962824686650    2.54140485941251  -12.79797760986047
H          -5.77038199772882    5.90615665940800  -15.22824711560553
H          -9.13585019146750    5.27364745923385  -18.82004306094555
H          -9.66216231281141    6.78881673228307  -18.05506322278848
H         -10.76462813803276    5.37670527967104  -18.07471135643007
