80
 SCF done       -162.585736347902          0.000623652261
C           2.29871671298186   -2.75106515505372   -2.56386765605584
C           2.54634841297353   -4.06062862464653   -2.86163445973033
C           2.84279634707588   -4.52951846023763   -4.16150732832869
N           3.09106166515295   -4.96088985936142   -5.19413769485567
C           2.63063438385683   -5.08465150764174   -1.89324006712935
N           2.75336899503639   -5.94130003205893   -1.14046147206749
C           2.42658161482867   -1.63248814871282   -3.49551933364399
C           2.58859991401085   -0.44049640444151   -2.76139155061870
C           2.76162081135951    0.77635086364768   -3.38518066026509
C           2.76676071211293    0.81248291569816   -4.78384367985972
C           2.58507666082208   -0.36873044748597   -5.52113805076058
C           2.41172451228988   -1.59231835589451   -4.87930262197722
C           2.52895930376445   -0.36876900320317   -7.01613473136983
O           1.95633797930398   -1.21501435228840   -7.65226241428956
O           3.18194071585709    0.66475321692175   -7.53863683280957
C           3.16727055338762    0.78264565946491   -8.95576470167618
C           2.91291624831702    2.07783401894307   -5.40601344347583
N           3.00915643676690    3.14086705221779   -5.82200180249611
C           2.49677681459011   -0.73384417918153   -1.31344285669358
O           2.63853582009207    0.02407089054399   -0.38715815166524
C           2.11718444881594   -2.17706088959460   -1.23939345773860
C           1.59444988934926   -2.67246128032779   -0.09575061469399
C           0.87640296781433   -3.90469999938832    0.07622627056392
C           0.94519094964267   -4.66415519340985    1.25551669723095
N           0.27643826661133   -5.77863778934755    1.41851808882885
C          -0.46829774085303   -6.21528982188118    0.40323927769037
N          -0.64383704577980   -5.54653139324104   -0.73659560666907
C          -0.01137051302771   -4.41067646416523   -0.88691781191620
C          -1.15857456315073   -7.48509745145086    0.55562838182773
C          -1.08297366622284   -8.24293719380734    1.72992878943945
N          -1.72441997608418   -9.38204577129074    1.86907237315720
C          -2.45039064101991   -9.81089750906032    0.83600211820987
N          -2.57089727876448   -9.17689811372993   -0.33121325342941
C          -1.94153012765203   -8.03162005239535   -0.46788132722162
C          -3.17074336572953  -11.06819832850297    0.99094413045608
C          -3.14550349093131  -11.80384837668387    2.17957218384818
N          -3.81647434783992  -12.92810392752042    2.32104694023201
C          -4.54182566965638  -13.33863529825163    1.28426346446591
N          -4.59368546702143  -12.74540290227936    0.09283502759816
C          -3.92178576468176  -11.62492400546904   -0.05062326542769
C          -5.29279768142095  -14.58255414129155    1.44286472040981
C          -6.58269821907515  -14.71327416220661    1.08483314886407
C          -7.38883025386516  -15.93279759635168    1.03774393653838
C          -6.99563623139816  -17.18605113509442    1.40421261446709
C          -7.80658486404583  -18.34173292080278    1.30824841505151
N          -8.39870496786858  -19.32184191460943    1.25472431057444
C          -5.72659173858845  -17.51962244024718    1.93225443902805
N          -4.72493989018160  -17.87562025083346    2.36263031477155
C          -8.69322745054454  -15.57179317657546    0.48926920719909
C          -8.73452927234338  -14.18297383711346    0.26229992718863
C          -7.45776161266203  -13.56521955384255    0.68460939807796
O          -7.22090687948125  -12.38792319393564    0.77782272784822
C          -9.85180851465436  -13.56064509930671   -0.25221335755671
C         -10.96260009698142  -14.34551161720687   -0.57620409943946
C         -10.92891818682785  -15.73331109749989   -0.36023786100545
C          -9.80315359298866  -16.34543168240398    0.18350026995807
C         -12.09538455782034  -16.61285166510880   -0.68082844916612
O         -12.27639816040094  -17.68541081166745   -0.16648927010335
O         -12.88829964988118  -16.07095348929153   -1.60188953423689
C         -14.04349389766286  -16.81479617996816   -1.96720197478542
C         -12.10821531877371  -13.68355969170047   -1.08426412676224
N         -12.99583827568478  -13.06545994370139   -1.46190773883454
H           2.88439462644603    1.68034355165203   -2.80784257501390
H           2.25318364902999   -2.47098845497760   -5.48541976468254
H           2.15547942227454    0.63253575415388   -9.33652350030818
H           3.82871509055361    0.03626113489312   -9.39979657358862
H           3.52033395343372    1.78655994438241   -9.17584595715322
H           1.67105705541308   -2.02979032605673    0.77581496150328
H           1.58180294075166   -4.36277766381668    2.07706784610487
H          -0.23635708060021   -3.85304173757427   -1.78875110637671
H          -0.48949556180525   -7.90787651768027    2.56973649996050
H          -2.05268806978927   -7.52076804541212   -1.41475774165893
H          -2.56672507579124  -11.46876512483366    3.02933383087076
H          -3.96864855327639  -11.14578668762934   -1.01871783245082
H          -4.73172325806146  -15.40646955384714    1.86178648798538
H          -9.86446004143952  -12.49170168191716   -0.40333083891623
H          -9.83587080001486  -17.41115639676377    0.34840498607112
H         -14.65080872007186  -16.14552240332011   -2.57046443234411
H         -14.58484272077485  -17.13435902901364   -1.07504666588330
H         -13.75486902150122  -17.69710948677498   -2.54179353901432
