86
 SCF done       -169.697633833861          0.000399490506
C           1.70056040222110   -3.00213046232433   -2.50888416640616
C           0.45339654846805   -3.35212989700009   -2.94925417947349
C           0.08811650812583   -3.42974410820817   -4.31063976405219
N          -0.25911509098112   -3.53111698541177   -5.39939204173426
C          -0.64727248913591   -3.60427749564957   -2.10262121483061
N          -1.59334575658210   -3.76981064793639   -1.47487997017276
C           2.77667899842071   -2.48783620701119   -3.35524813041130
C           3.72108574749478   -1.82645188894514   -2.54575417506152
C           4.83100973132946   -1.21095800663185   -3.08229393380140
C           5.01096458761950   -1.25899030385246   -4.46885779860645
C           4.07689328625861   -1.92227141015071   -5.28164007564954
C           2.95761244627920   -2.53843215804141   -4.72701548746730
C           4.30944461445469   -1.95339074090547   -6.75502902509894
O           5.31328472180475   -1.55273237245567   -7.28524228568444
O           3.27163135430579   -2.47242590245974   -7.41317400517282
C           3.39528133288165   -2.52858881134422   -8.82797782541692
C           6.15541722811086   -0.61248085302415   -5.00254422097683
N           7.10651335815697   -0.04765514139318   -5.30053907274487
C           3.31558158536001   -1.93536650618880   -1.12511298743469
O           3.85159265959320   -1.44838734706907   -0.15994598539910
C           2.12446801371880   -2.83056687843946   -1.13142441020703
C           1.70294254843108   -3.38716471293961    0.03142870446401
C           0.82778488472824   -4.50536820443756    0.20422104023276
C           0.80700744709759   -5.60877838991711   -0.66689013005534
N          -0.01464131108918   -6.61389897583296   -0.51827839015880
C          -0.85488756807849   -6.58442125694240    0.52996021329135
N          -0.84669320681085   -5.63506492979832    1.47276655023032
C          -0.03296098717232   -4.62593683583178    1.31205998072886
C          -1.79226265146025   -7.65415235457900    0.63874229758573
N          -1.82907990674624   -8.66313872835828   -0.27471210570370
C          -2.82297830419677   -9.53108962946124    0.04349334529028
C          -3.44375865035076   -9.06067573510000    1.20660822026942
C          -2.79781723278807   -7.89138535127976    1.57760398535644
C          -3.09923060756443  -10.67102283926999   -0.70227624526537
C          -3.33557092454206  -11.67033021800389   -1.34992239221209
C          -3.58613769531277  -12.81416894486440   -2.10024450379579
C          -4.69314670296668  -13.57112849829593   -1.94840366767013
C          -4.98224560249077  -14.75501430073112   -2.70867728094925
C          -6.26739829436137  -15.32496784630984   -2.70507779685791
N          -6.58371661654344  -16.38096422554899   -3.41627084886491
C          -5.63059704822203  -16.91039246232376   -4.18721033514167
N          -4.35986814365803  -16.50971277978542   -4.19949535661370
C          -4.04120530185466  -15.46585555150541   -3.47524632401371
C          -6.01194476211563  -18.05313832611654   -4.99265464664167
C          -5.47907409706482  -18.36885654092266   -6.19333950480212
C          -5.70927652718832  -19.59091251691341   -6.95933791875305
C          -6.56430586629296  -20.60917460909257   -6.64903125109141
C          -6.76673138162492  -21.75373020733888   -7.45527870986369
N          -6.99878382731406  -22.69702841302933   -8.06451716559139
C          -7.39305419514032  -20.67076710951386   -5.50528057156055
N          -8.09244261627536  -20.81179888459002   -4.60686967693056
C          -4.84556882786676  -19.54041056845834   -8.13653263232818
C          -4.18352849672120  -18.29957313374441   -8.16924902650781
C          -4.59250484215876  -17.47842923079681   -7.00565168398976
O          -4.34004893830191  -16.31291062435599   -6.83239909093888
C          -3.29829641264107  -17.97057198201909   -9.17307014622466
C          -3.05479880388246  -18.90918374584695  -10.18042539708357
C          -3.70623811334365  -20.15334100148985  -10.15346135863177
C          -4.59479132391318  -20.47387969485856   -9.13102037400533
C          -3.45874178754734  -21.19488016259123  -11.19707839567626
O          -3.61422753341022  -22.37287304560574  -11.00729410950634
O          -3.05815304875200  -20.65901984317302  -12.34784876213592
C          -2.76712813984237  -21.56306260611246  -13.40562630749253
C          -2.10893193306982  -18.57133401636233  -11.17996353319946
N          -1.31454462700131  -18.22587773797611  -11.92991117256546
H           5.54242201697796   -0.70320327151960   -2.44871279995649
H           2.26490323725388   -3.04661336628368   -5.37730685728092
H           2.45305948956763   -2.92569947988560   -9.19593555743377
H           4.22587941970391   -3.17886966651474   -9.10953555080318
H           3.57894054765139   -1.53080898943383   -9.23107203523145
H           2.13533801020509   -2.96554580822219    0.93383648654723
H           1.51732502928470   -5.68719989230959   -1.48255650966988
H          -0.07181239106481   -3.85253157373688    2.06820344497168
H          -1.20955295639020   -8.71849827376602   -1.06748622777784
H          -4.26529703739186   -9.53556975243662    1.70492584611815
H          -3.01282993673495   -7.26515575285603    2.41910337361444
H          -2.83681713238154  -13.06297613423241   -2.84098677669948
H          -5.44432389159703  -13.26879710437496   -1.22968161114208
H          -7.06319612396293  -14.90096303868183   -2.10439640138268
H          -2.99260039489180  -15.19824171958280   -3.48417112002835
H          -6.78540760902054  -18.66615458960660   -4.55044766569521
H          -2.79950340343518  -17.01306464409237   -9.17442179499576
H          -5.05616144923394  -21.44883473501137   -9.14680544487267
H          -3.69073134245523  -22.00145933596163  -13.78865186367677
H          -2.11568328450420  -22.36328589472938  -13.05004429316076
H          -2.27398260698051  -20.97446607251222  -14.17446340710387
