112
 SCF done       -215.409632111561          0.000550757635
C           2.88015319340069   -3.20322852414978    4.92235771784860
C           3.25866375540474   -4.02534441732248    5.94759185353104
C           4.01470111754884   -3.60709214018110    7.06610679741175
N           4.61453231556695   -3.34083433771416    8.00644576028711
C           2.99318766685900   -5.41143689935504    6.01987975251106
N           2.84298788754970   -6.54383565686242    6.13196198163654
C           3.26693032594658   -1.80306784940662    4.77371130266218
C           2.86587357438651   -1.35916955684156    3.50085819639665
C           3.10775721291125   -0.07409988694312    3.06690157694483
C           3.75106215036702    0.81181425673706    3.93787246571199
C           4.13988554217261    0.38238259412081    5.21703890896174
C           3.91289317730206   -0.92833880220877    5.63128221879197
C           4.81845398494569    1.29291781282563    6.18887455205634
O           5.47879589079058    0.89997435450657    7.11504360927427
O           4.58969819704785    2.57570745492047    5.91545510438169
C           5.20423919965605    3.52708192061611    6.77443931958536
C           4.01035999605685    2.12149649481235    3.46300608478847
N           4.19938785214772    3.14563829965536    2.98549232264762
C           2.18319739638454   -2.45584047424173    2.77650499168343
O           1.76726198156329   -2.40142069590838    1.64088869130933
C           2.10885711312743   -3.57598595099641    3.74439024044708
C           1.32991883683152   -4.69681421156107    3.67783355690301
C           0.54405562265527   -5.22038345917913    2.62782263300269
S          -0.54556383023033   -6.52895881038168    3.03823884698420
C          -1.08867303320770   -6.68047369721649    1.40581729769423
C          -0.42580744325963   -5.75192819868556    0.58325641976522
C           0.47839080499737   -4.93965976195419    1.27325379097542
C          -0.63073151426870   -5.62314545175293   -0.80183462666714
N          -0.77527852433149   -5.50449861717359   -1.93399167046907
C          -2.07705831230754   -7.64621893274437    1.10487360927350
C          -2.54092015651552   -7.94772057410481   -0.13851927536861
C          -3.54524309329687   -8.92368652104621   -0.34385167669648
N          -3.99192430360815   -9.31333083557073   -1.58341095498698
C          -3.48409446369383   -8.86811648279546   -2.85976303364607
C          -2.15606558068993   -9.53547731732349   -3.20679374028629
C          -5.00233539944052  -10.29242040661885   -1.49808088112884
O          -5.54257434985404  -10.79513419095424   -2.45893811886769
C          -5.17869575060102  -10.48860085971561   -0.07436906994215
C          -4.27413395400311   -9.64298611340167    0.60607000983346
C          -4.47156148520818   -9.85030003775625    2.02230489610423
O          -3.91918304502512   -9.38218072960149    2.99850591578669
N          -5.50651082599391  -10.80360973390557    2.10414885086834
C          -5.94171173457813  -11.26521603075866    3.40085406747850
C          -7.08912249735063  -10.41824711233343    3.94804434785863
C          -5.94067514758158  -11.18926720534885    0.85758536941558
C          -6.94193774438537  -12.13102486893038    0.49001805836534
C          -7.91824485412308  -12.67557339134104    1.24946215959938
C          -8.88121189105816  -13.64445783427726    0.79035265570771
C          -9.98515693611166  -13.92959214771158    1.59858098929045
C         -10.94118342787672  -14.85430815543455    1.22177093505676
N         -12.03593468805086  -15.03232372896234    2.15142825019630
O         -11.78728747125834  -14.85067806099974    3.32349310875102
O         -13.12738062272975  -15.32545049893522    1.71670094749308
C         -10.81441423383754  -15.59703841169368    0.02879618101150
C          -9.69487564080882  -15.30278945179578   -0.76857739674938
C          -8.76852735450823  -14.35154270589037   -0.41661842925369
C         -11.73887510302293  -16.63683901647161   -0.34930853301078
C         -11.42448749231320  -17.67232086193287   -1.16434385944485
C         -12.36684203051634  -18.68846754518453   -1.46789991493889
C         -12.08234482870705  -19.80857988031465   -2.19268818559762
C         -12.98913545371614  -20.90267844665175   -2.50417580745458
C         -14.34842967974755  -20.91223761413355   -2.36161387824669
C         -15.17945781518336  -21.99228616031732   -2.73730306247124
N         -15.91379263793685  -22.82184793031716   -3.03322366298574
C         -15.12356490572789  -19.83629774606505   -1.87327236479880
N         -15.82008603811301  -19.00334948869439   -1.50278974614575
C         -12.19069752385836  -21.98628877755981   -3.07473318886543
C         -10.86457840315188  -21.54216875512167   -3.22996504584926
C         -10.73917675937881  -20.15706034020399   -2.72457926917687
O          -9.73797165894734  -19.47591751139458   -2.74184052663255
C          -9.87941837239171  -22.35245286678593   -3.75113691635235
C         -10.22065253161968  -23.65501346731638   -4.12907313841103
C         -11.53831225148630  -24.11183558532355   -3.96500537361248
C         -12.52312416462829  -23.28229885536184   -3.43402328886937
C         -11.93651731413776  -25.50988129446991   -4.31352066969765
O         -12.87405270537503  -26.07455096562212   -3.81319591493359
O         -11.13597170628494  -26.03992493145520   -5.23517821690030
C         -11.40220090669277  -27.38318058024815   -5.61694390314611
C          -9.18570263400492  -24.48478510880344   -4.62738702801929
N          -8.28302065734445  -25.08774707466791   -4.99388683620721
H           2.80462702650391    0.24093840389605    2.07969670823754
H           4.24338762194915   -1.21367680083104    6.61785494641695
H           5.01508376178814    4.49881242269963    6.32678559400747
H           6.27604183130444    3.33412731832958    6.84659978973415
H           4.76650575107810    3.46915380280861    7.77303358911154
H           1.26144755300139   -5.28374543294423    4.58684812760358
H           1.06353916606582   -4.17170897449644    0.80060414983942
H          -2.47742610649329   -8.18232034634008    1.95655054319830
H          -2.14307878023311   -7.44352867174340   -1.00548392508686
H          -3.37948110118198   -7.77992556489975   -2.85496891535470
H          -4.24031574609342   -9.14789912850904   -3.59833169138727
H          -1.39443799478860   -9.29708624373020   -2.46773214931536
H          -1.81681699990870   -9.18862529568500   -4.17834588289749
H          -2.27927220441309  -10.61517153479315   -3.24496902473222
H          -5.07951915484588  -11.16269702881249    4.06712148338384
H          -6.21033174561537  -12.32151124570166    3.33574862865131
H          -6.74498815439995   -9.40020455923140    4.11143826970577
H          -7.42930604060610  -10.82550582126011    4.89611663308451
H          -7.92667650698648  -10.38740580448340    3.25418309551624
H          -6.89766101653692  -12.36947398450975   -0.56494266232957
H          -8.04980896131064  -12.37059965707692    2.27603582537604
H         -10.11660561652931  -13.41411457106023    2.53950880894713
H          -9.57286198754802  -15.83046642187184   -1.70082181232004
H          -7.93358485221557  -14.16433670124381   -1.07281587392795
H         -12.73184819044621  -16.59672373722737    0.07778146582497
H         -10.43240674090976  -17.78032565220197   -1.57552299756008
H         -13.36227822432018  -18.56156681400030   -1.06123890001186
H          -8.86741933905444  -21.99137099347687   -3.85695216691633
H         -13.51542309211287  -23.68670193525288   -3.30937218007703
H         -10.53820151765989  -27.70746592376572   -6.19067565940408
H         -12.30752380604437  -27.42729788088707   -6.22544122460699
H         -11.53879074618025  -28.00706786231981   -4.73188173293578
