119
 SCF done       -230.616349172632          0.000446092545
C           0.69449010911868    1.06841237281604   -2.04669008557636
C           1.43096582532778   -0.07734049846679   -1.91705565695533
C           1.43701850786092   -1.12433439430918   -2.86275852679388
N           1.49727074331815   -1.99581693175599   -3.60615988868061
C           2.19509023018775   -0.37572606276602   -0.76817531560006
N           2.78742026041038   -0.66542148267060    0.17081666313104
C          -0.34472229915490    1.29460655590390   -3.04840999160341
C          -1.23075004800012    2.27870086065114   -2.56782017187178
C          -2.34401988569013    2.65950192194616   -3.28776522270113
C          -2.57454501217393    2.04518039027440   -4.51776789149912
C          -1.68837135251915    1.07829217923289   -5.00539575343307
C          -0.56731747233153    0.69642862722809   -4.27785084939711
C          -1.90887086317693    0.48834985445225   -6.37483826131023
O          -1.50873619301428    1.00531381649064   -7.38227471069407
O          -2.50720258601975   -0.69235223045838   -6.29202269411699
C          -2.81478681497487   -1.32176060342184   -7.53099259857429
C          -3.76832875083951    2.37023719994929   -5.34492943784758
O          -4.13533886744183    1.69922523592075   -6.27768917719568
O          -4.38497742396022    3.47846809574118   -4.93734797198123
C          -5.53327136364188    3.86092048519967   -5.68349760476561
C          -0.75443821069601    2.77787131198874   -1.25835677945210
O          -1.28333975623210    3.57617798211791   -0.52459191804410
C           0.57155408095518    2.12231047550403   -1.05875887707795
C           1.43751387050602    2.61462729309464   -0.13643210071093
C           2.84178563676249    2.42766553906333   -0.04593457537274
S           3.84073046492098    2.04600891024438   -1.42500019309793
C           5.28312079996677    2.05116324689125   -0.46236557841387
C           4.98375823208787    2.36634751070949    0.86553662561407
C           3.61746943801727    2.59920189060281    1.08105372953956
C           5.93741204059852    2.53401769030740    1.88667149813279
N           6.68062875970636    2.72510192444288    2.73843531468727
C           6.52140854577506    1.74894192276404   -1.08362859362579
C           7.64299868585278    1.36730910422923   -0.42206674193839
C           8.88406819520209    0.97664649807483   -0.99130574190307
N           9.40382932921548    1.26125292032521   -2.23481635394416
C           8.94446131174948    2.22543191335276   -3.20868913050704
C           8.92503177079168    3.64529063249532   -2.65323098922338
C          10.63879952162485    0.61146793074541   -2.43901075435150
O          11.29555918519714    0.72499886511558   -3.45385592490532
C          10.86116895707325   -0.14217571589827   -1.22623094865238
C           9.78529400079494    0.12853533510831   -0.35172709136614
C           9.96793607367234   -0.66062354823628    0.85083899134961
O           9.31934353823484   -0.76597739188635    1.86513581607825
N          11.17030512063435   -1.36398273878238    0.61342745509299
C          11.68576182019411   -2.30108489176824    1.58228633414899
C          11.27358582631719   -3.73538312805984    1.25882616355617
C          11.69993116105964   -1.07947950038564   -0.62071924568522
C          12.86111124827924   -1.69212295026165   -1.15092433997524
C          13.39593410682777   -1.32988822216347   -2.34767089944244
C          14.51017628348083   -1.98637477402968   -2.92200552162633
O          15.02249009040808   -3.11506692983355   -2.37986373550722
C          16.04437615765979   -3.53450276420054   -3.15131875054580
C          16.21844128564420   -2.65491974245079   -4.22259618097893
C          15.22385320228457   -1.65520933933069   -4.07800753161871
C          15.01315227659277   -0.55378456811461   -4.92065754266878
N          14.86492149223186    0.33921215678540   -5.62271097262173
C          17.19839345932511   -2.77362065972015   -5.21752054825872
N          18.01113830717784   -2.90292929006311   -6.01515765078742
C          16.78693831503540   -4.70390942623184   -2.86021777776873
C          16.53642060408045   -5.52736311140208   -1.81168953870591
C          17.24638336498135   -6.72619217108812   -1.54109794467601
C          18.49671714064555   -7.10861226060835   -1.91723452397355
C          19.64334832874264   -6.41334583283944   -2.46852016677904
C          19.99930214216822   -5.10771798747301   -2.26516149039373
C          21.21929941058884   -4.54724420566011   -2.70469112277744
N          22.19607365157654   -4.04099470140777   -3.02819973305111
C          19.23261356740901   -4.18423972506096   -1.52663994991230
N          18.64799854266232   -3.39900288067731   -0.92778540899775
C          20.50798851497870   -7.42819527403258   -3.07264146897688
C          20.05047194017082   -8.70552725341555   -2.69726737215079
C          18.83406854505604   -8.56485012330177   -1.86910167076764
O          18.20695366942068   -9.42802848889925   -1.30595276032394
C          20.68847696530771   -9.85763939727546   -3.11382689316339
C          21.80967147154363   -9.73096459429820   -3.92622647444238
C          22.26204118168162   -8.46491985357094   -4.31277699295821
C          21.61698145509349   -7.30348642522800   -3.89002807798649
C          23.47630058530547   -8.39646247464551   -5.17538169399704
O          24.21079045554445   -9.33503109390317   -5.36254653995961
O          23.65815352027900   -7.18901828208396   -5.70082208073162
C          24.80056533930503   -7.03129121697702   -6.53251982058450
C          22.48915863856303  -10.96178637088111   -4.46719910248895
O          22.19566234377184  -11.46010732129915   -5.51969027091676
O          23.36362435213747  -11.44973332067549   -3.59588441600517
C          24.11510645627513  -12.57477906692062   -4.03781918321737
H          -3.02132671724232    3.40739687042271   -2.90694811351458
H           0.10894979366378   -0.04062397945464   -4.68087708529492
H          -1.92022640958371   -1.39246226168033   -8.15265795096480
H          -3.57205946436169   -0.73803364577671   -8.05684417788528
H          -3.19322340193269   -2.30981949990266   -7.28328612004501
H          -6.31913758578897    3.11024024754865   -5.57865875611814
H          -5.28051613060520    3.95999686137105   -6.74086991489211
H          -5.85704486828478    4.81399626210055   -5.27396466833127
H           1.00886925939065    3.30035130341373    0.58857004115826
H           3.20652554438630    2.85292103755810    2.04227703540040
H           6.49960680955299    1.75940384372121   -2.16367136023308
H           7.60490482470337    1.23710327648380    0.65176685839624
H           7.96225488956945    1.93980107714752   -3.59489628010940
H           9.66189305204989    2.16133513698366   -4.03304662258000
H           8.23007589952625    3.73627021791117   -1.82166448735932
H           8.62603096351188    4.33714260428015   -3.43558909950620
H           9.91740620382797    3.92302203583447   -2.30672726889348
H          11.25688607264756   -2.00897327657713    2.54488720725083
H          12.77346802676391   -2.20722386808081    1.63692223896612
H          10.18954629895259   -3.81647949086419    1.25734874399577
H          11.67050847952570   -4.41036841692846    2.01181793659649
H          11.64428060830788   -4.04044347327177    0.28248693395433
H          13.33087461123103   -2.48047793189794   -0.58015565931528
H          12.97197478776858   -0.51769808301335   -2.92342500677634
H          17.56610049641548   -4.93373164708103   -3.57417755620015
H          15.68946217676946   -5.30993303659714   -1.17540071756501
H          16.69159528411853   -7.49334205353203   -1.00773749008791
H          20.31808652546796  -10.82642473243243   -2.81625214938872
H          21.98666702345936   -6.34565930537443   -4.21749095758795
H          24.71527822722619   -7.66875234679640   -7.41474614904511
H          25.70600770995191   -7.30372892865502   -5.98679476618892
H          24.82302191035900   -5.98272832047623   -6.81696472026688
H          24.78282541313055  -12.26953371854399   -4.84507476005327
H          23.44736123252885  -13.35799585689445   -4.40189887190255
H          24.68322889778282  -12.91815433148789   -3.17748537735017
