123
 SCF done       -249.264279115516          0.000461731658
C           0.26038591410868    2.34343489118931   -0.49530679018595
C           1.20393574886736    2.36735925106499    0.49499182178235
C           1.10213197809040    1.64134318569828    1.70410906636371
N           1.06778803373224    1.09495558760655    2.71128330567442
C           2.35316149193735    3.18268623049449    0.48441132136914
N           3.29476267502402    3.83695120746539    0.53854391625877
C          -1.03547853980168    1.66909089185495   -0.38754291022298
C          -1.92681631563663    2.23561716321105   -1.31869814798299
C          -3.23796203252281    1.81726034900669   -1.41572733532804
C          -3.66583937591601    0.79829354295689   -0.56786394259681
C          -2.78018298704912    0.21992392327252    0.34837530637613
C          -1.46141478014769    0.64880823285529    0.44819331558552
C          -3.29508723757058   -0.82962300153095    1.29849688649283
O          -3.92681482783613   -0.56664440747438    2.28500851939050
O          -2.89809613179494   -2.04172536285483    0.93281895285616
C          -3.38048762986156   -3.11804797662918    1.72954875723281
C          -5.04946486842298    0.25338060801823   -0.63916449804920
O          -5.35579978343728   -0.84156851076042   -0.23729981100267
O          -5.90060719482245    1.10611908176477   -1.20703749323364
C          -7.24915535311240    0.66688198873453   -1.30650225450288
C          -1.21858842886913    3.25450332616574   -2.11858612048740
O          -1.66602666552834    3.98363808384219   -2.97007451407414
C           0.21237073210825    3.16051911888650   -1.69339802783993
C           1.15508744914576    3.73756393232929   -2.48718030161248
C           2.55664444745310    3.53378233555799   -2.51421760991255
C           3.27903555889617    2.47254859989873   -2.01697176509907
C           4.66595309908086    2.69478718197366   -2.25849438260986
C           4.75616661883090    3.96571039723300   -2.99640075259068
C           3.49784808727466    4.45582880587914   -3.14031931385567
C           5.92863368577859    4.61808374039005   -3.40187078301369
N           6.86364677446812    5.19520334042596   -3.73338692365182
C           5.71263994672840    1.93461295834725   -1.78794554443273
C           7.09475461841008    2.08115691934503   -2.07250854526625
C           7.81503122227393    1.18251951651934   -1.30185770755142
C           6.86492084519106    0.42656719168901   -0.49619369762782
C           5.60875787925314    0.84318722409915   -0.80205074741528
C           4.42856474028842    0.35414603132876   -0.23058286452964
N           3.46428204191976   -0.05791224660599    0.23889709617183
C           9.22435999308787    1.06348979947463   -1.35276511269261
N          10.04007808491136    0.45885701024908   -0.43545154738133
C           9.67075810171766   -0.14081879726623    0.81906980159147
C          11.40237751719237    0.55544701903585   -0.79531847588808
O          12.30107290863159    0.10542502277085   -0.12117835714272
C          11.38884445619684    1.26523947146526   -2.05922515103978
C          10.05300834849993    1.56617785578395   -2.37169469862984
C          10.02708903485773    2.21062169432749   -3.67521647313775
O           9.12307382227208    2.61120114422184   -4.37065805969303
N          11.38377985060703    2.27437005143994   -4.04794913807341
C          11.79432802372387    2.88514015728323   -5.28349309705372
C          12.21116465250095    1.72229162007871   -3.10556693878419
C          13.60943560170592    1.65517560890519   -3.24275438556087
C          14.41742746373313    1.16996584353810   -2.25245575084164
C          15.82376243224936    1.05642714285928   -2.33417529094005
C          16.55155791354540    0.65780116577354   -1.17538024842925
C          17.98053762568127    0.54668303636443   -1.16818390856516
N          18.61647465976673    0.15027079813073   -0.05201176767836
C          17.91807966423606   -0.09754414455845    1.02605348210275
C          16.49130098722100    0.05527502804595    1.02999540814409
N          15.85636819247611    0.40859596014027   -0.05793474481165
C          15.75146970354259   -0.19817237181870    2.21366600997720
N          15.19439516661474   -0.41058341049550    3.19102994603295
C          18.58431542644970   -0.53993802206368    2.19857904215844
N          19.08405121610361   -0.89682015141124    3.16469649615405
C          18.76697113715357    0.88211448280218   -2.29987361450296
C          18.04772522833371    1.21513440425660   -3.46724822445227
C          16.60474695382781    1.30405507247399   -3.48740782093461
N          16.15472886135526    1.62573289802423   -4.70151545792631
S          17.39374097585520    1.78541333072653   -5.70642502926240
N          18.57267976964657    1.46081530397373   -4.66995536668345
C          20.18335201088102    0.80276420038752   -2.20641891170959
C          21.15154737572943    1.39751355491576   -2.95371691373963
C          21.14004825066967    2.48007224159116   -3.91076602623986
C          20.25801744410284    3.52685687919909   -3.94635329813937
C          20.29113101886867    4.56412240162872   -4.90125734227659
N          20.23029557583563    5.40808777700615   -5.67623411154355
C          19.22120792525302    3.70603269743160   -3.00903912572237
N          18.36499441966716    3.89519697242917   -2.26802251852457
C          22.37384429853232    2.38491348499081   -4.68938937298264
C          23.21788110986986    1.42972812947341   -4.09045006656713
C          22.53260630432997    0.82644402040123   -2.92610162012976
O          22.96375713428549    0.01380688570433   -2.14661474361155
C          24.47044822216579    1.15089851624547   -4.59564423172887
C          24.88815561021928    1.83866193132418   -5.73347505263257
C          24.05247490268733    2.78540028987971   -6.33586175593238
C          22.79311962528330    3.06882567890235   -5.81955284230529
C          24.56364522096021    3.56838116013824   -7.51670396531525
O          25.29749403669645    4.51240115081773   -7.40978388908424
O          24.03601461524709    3.12298439719961   -8.65088448250337
C          24.50286088651926    3.75365836073018   -9.83861224368127
C          26.20278202762231    1.56365110250047   -6.37542409729417
O          26.45413021555103    1.84265497850998   -7.52177299267557
O          27.05637970215789    0.96414617145220   -5.54817142311692
C          28.34052454374640    0.67084846831005   -6.08342925181416
H          -3.91021816635689    2.26227466639895   -2.13216438041176
H          -0.79699580278401    0.18013088050158    1.15618705272159
H          -4.46191420366815   -3.20275848064971    1.61038449489957
H          -3.14847166658369   -2.94402584469486    2.78191646306166
H          -2.88210467852478   -4.01241128212609    1.36539947355239
H          -7.61754240637411    0.35581637359988   -0.32714301496331
H          -7.32145397490825   -0.17789697691963   -1.99458358087438
H          -7.81728773778655    1.51451684972518   -1.68035069715635
H           0.75669958824241    4.41082912348721   -3.24181709383058
H           2.87624218984561    1.58137200355484   -1.57878534513000
H           3.22070207772504    5.38415810934260   -3.60443355047140
H           7.50437505682836    2.77141268164648   -2.78361755798220
H           7.10409711402656   -0.35653252186485    0.19630061300646
H           9.00304547191368    0.51304184799256    1.38022041630510
H          10.59366697453321   -0.28724294334445    1.38233896578273
H           9.20114254250390   -1.11490524106822    0.66803778562014
H          10.88910696890334    3.23811516900028   -5.77782181886387
H          12.29934706065602    2.16300563419152   -5.92730480628386
H          12.45616537219369    3.73225871335122   -5.09739650394410
H          14.05261231894812    2.01021405714462   -4.16160676250573
H          13.98587178558298    0.84945252878890   -1.31244934055627
H          20.54649788162620    0.12614003346219   -1.43755540111300
H          25.10709028596047    0.41780811450599   -4.12600620229953
H          22.16842008903846    3.80154804149420   -6.30484597859359
H          25.56210262322019    3.53084521669523   -9.97654082201325
H          24.37027617876237    4.83510012873677   -9.77077242077667
H          23.91369684184635    3.34115066770158  -10.65322575246417
H          28.82109820568060    1.58640397047598   -6.43336605878949
H          28.25143120653876   -0.02242366508296   -6.92224555217666
H          28.91070311503896    0.22294333493300   -5.27400935245796
