119
 SCF done       -218.745819695957          0.000670559218
C           1.51856553524863    0.78855450140600   -0.04287496465270
C           2.05644289413965    0.65622342020135    1.20909147017904
C           2.92809248068041   -0.38797532116115    1.58727376399771
N           3.62956631708998   -1.21397153761577    1.96506681056966
C           1.82665984545350    1.52043098017792    2.30104748989841
N           1.68772133443479    2.16865730699956    3.23867610741829
C           1.78334296274049   -0.08316891254268   -1.17926444299219
C           1.08146848606782    0.41555639823732   -2.31376896329630
C           1.14617192365556   -0.19754849502945   -3.53183333999581
C           1.93392029848257   -1.36089815345068   -3.67511035942335
C           2.63659011644396   -1.86978660354108   -2.54460007808466
C           2.54891992727522   -1.21357672218429   -1.29591203026152
C           3.41654893706407   -3.03417994430716   -2.69763791894463
C           3.50080965255766   -3.66611322154288   -3.90841971202672
C           2.80978482899951   -3.16340547401077   -5.02108590389403
C           2.04350592847772   -2.03513817454699   -4.90708392450223
C           0.33972247255774    1.62337329055066   -1.93788102678409
O          -0.42931119098059    2.26019292762433   -2.63165070668516
C           0.63582781975273    1.85216045634881   -0.49991030809766
C           0.07085590467915    2.81241987427514    0.28180017715548
C          -0.67339079933245    3.95796436326643   -0.11375562324569
S          -1.90313901029017    4.50451535569545    0.99345820816734
C          -2.28937086257146    5.86249780637575   -0.00747052679425
C          -1.48380837827240    5.88498918890423   -1.14257382808973
C          -0.56164998785652    4.82822181415476   -1.19136901558898
C           0.50865481171577    4.81586117338837   -2.23587889843416
N           1.78133720688179    4.30706424159221   -1.67558734209214
O           2.37711955574241    3.47423325725050   -2.31561637779463
O           2.15169123177030    4.77601813229191   -0.62766445979059
C           0.75577394707473    6.24706851261718   -2.72442937610856
C          -0.53767168116539    6.81037357351604   -3.29658788327017
C          -1.62969435113161    6.90284963735883   -2.22510599072297
N          -2.97537182483904    6.77160559702895   -2.90518017978049
O          -3.86613685505854    6.22975118652528   -2.30690983062390
O          -3.05301603890312    7.24087720379529   -4.00968763382585
C          -3.26554244766266    6.82789744540031    0.32203901586074
C          -4.17830115977841    6.75239289657013    1.32312831998830
C          -5.11934264862897    7.79719231428591    1.49259598071333
N          -6.11188628721652    7.81339051266531    2.43826146914971
C          -6.32733162106336    6.83116837410714    3.47259582546831
C          -5.32776957999686    6.98312869086981    4.61654246124116
C          -6.92556438798846    8.96313773574942    2.33477605057695
O          -7.86408191150787    9.18988504875934    3.06537245061084
C          -6.36145892665974    9.68938166007615    1.21711484693935
C          -5.25361571817956    8.96110907052394    0.72841970006293
C          -4.70749139592891    9.70305465513232   -0.38072151212239
O          -3.75204575974132    9.48557394268019   -1.11243488686957
N          -5.51511217318414   10.84344238213958   -0.48961005468342
C          -5.29698615118895   11.76314424928023   -1.58067805708046
C          -6.34646729194837   11.60735029811729   -2.67788529734755
C          -6.52116760113933   10.84666996647479    0.45820553491600
C          -7.54888778957753   11.78948914659208    0.70308359385747
C          -7.75861288661705   13.01427240961806    0.15662090097691
C          -8.84519563458556   13.85569176458343    0.50644710415025
S         -10.11079620512631   13.36938205825396    1.60267101229315
C         -10.92193363467579   14.89472506253104    1.42656172698739
C         -10.21544313420173   15.73029677951439    0.55241507081341
C          -9.05793040621928   15.13893124097684    0.03601144052920
C         -10.64059033135951   17.02893068470900    0.22163572457203
N         -10.97600516457924   18.08952538222340   -0.05611773540244
C         -12.13254376958197   15.20808847052922    2.08150596720312
C         -12.83028418062703   14.33773137016511    2.86129453051794
C         -14.04376185937420   14.70320058212651    3.48382212198700
C         -14.82363220786018   13.85881432584121    4.22318710626772
C         -16.07392264215383   14.18320743451867    4.88496945224948
C         -16.65097239654494   15.42238636522134    4.99541548400632
C         -17.86868072026175   15.67134363786194    5.66311338229137
N         -18.85238778408659   15.94495944479686    6.18815644256390
C         -16.12172517493406   16.62657201168884    4.48607451336435
N         -15.75917957298176   17.65001850365699    4.11153527301698
C         -16.61022761651794   12.95037419923071    5.45204928820377
C         -15.69423492886410   11.89176370061597    5.19132065152531
C         -14.54368917748855   12.41225178647657    4.43421900687387
O         -13.58054693187872   11.77930590306157    4.05564279130985
C         -15.92934101975788   10.61310299400517    5.60748053536186
C         -17.11780084134107   10.32664899177295    6.31533877160885
C         -18.04214493345435   11.37881216371026    6.57727233715864
C         -17.76962519291053   12.69384605653140    6.13559534212756
C         -19.22708860968745   11.08188860645156    7.28108978562121
C         -19.48805245885048    9.80781413649515    7.70634403409529
C         -18.57703429105153    8.77263747062008    7.44800653387563
C         -17.41703566820838    9.02655357176894    6.76767764398359
H           0.60616604950596    0.20273909751641   -4.37687976495784
H           3.09165119019032   -1.62538193978496   -0.46010856454603
H           3.94766390968637   -3.41662455599970   -1.83841147055005
H           4.10107565259857   -4.55709706005705   -4.01565994372879
H           2.88766437122690   -3.67470517808490   -5.96888713703051
H           1.50936918380905   -1.64372192316818   -5.76048026572853
H           0.14600223186752    2.69570881997530    1.35603887414579
H           0.24007706869548    4.15547978012335   -3.07071216399666
H           1.52701335360575    6.24476347713472   -3.49619239383923
H           1.10225159920633    6.85558113277254   -1.88555556002897
H          -0.87909947536464    6.15854976296622   -4.10412307887177
H          -0.35759625884856    7.79468601969366   -3.72719072837942
H          -1.66365505763506    7.91052824917791   -1.79025452386096
H          -3.28064171749501    7.70990661099775   -0.30174147338009
H          -4.21992536429999    5.88711633470926    1.96869928511244
H          -6.27401207230201    5.82808856596489    3.04018393453122
H          -7.34115569062597    7.00268344036024    3.84487147740886
H          -4.30680194578167    6.85676571024105    4.26315875861011
H          -5.52793975784840    6.23743408180227    5.38071446954453
H          -5.42067770410705    7.97044008550043    5.06217402265283
H          -4.31178878688525   11.50962527315076   -1.98418362353882
H          -5.25694295086749   12.78760085642990   -1.20178123016446
H          -6.30179381453139   10.60179780503689   -3.08881576809618
H          -6.15092608693107   12.31658738868514   -3.47747786442802
H          -7.34910754093754   11.77800657866749   -2.29273134259216
H          -8.23997149578015   11.45254924704858    1.46797933526123
H          -7.08835331924870   13.43207988144763   -0.57867950800677
H          -8.39744173199195   15.63374715277671   -0.65419719400733
H         -12.51171022600276   16.21139187124891    1.92144536516462
H         -12.46204407527815   13.33175392774997    3.00849538898079
H         -14.36641328617334   15.72698349335432    3.34220164151147
H         -15.21659614441798    9.82955850228456    5.39694283187044
H         -18.49162975688749   13.46593153777765    6.34829716736770
H         -19.92508173894889   11.88237472655656    7.47799310564391
H         -20.39851326880912    9.59041910165143    8.24446911896714
H         -18.79924537498198    7.77307200425593    7.79066481085584
H         -16.71175117919010    8.23368700192870    6.56566894929923
