81
 SCF done       -155.521108836128          0.000566204579
C           0.89257228691848    0.56659767207834   -1.46646128764741
C          -0.46150317692124    0.58731490808769   -1.64294241345784
C          -1.27930580487513   -0.55901412919888   -1.55201727293428
N          -1.98134447284528   -1.46430986899063   -1.49040645880380
C          -1.18021164879519    1.73322352764676   -2.04535797640645
N          -1.79508017233988    2.61981012902979   -2.43618843751646
C           1.71710750114689   -0.62510641782152   -1.32070954054637
C           3.06162738572888   -0.29769021667162   -1.67056676212773
C           4.05137886758139   -1.23965063302993   -1.66832803535250
C           3.73867355815117   -2.56751097187057   -1.30186346768119
C           2.40088588028656   -2.89573780311577   -0.93333763760044
C           1.39510705322170   -1.90321428384595   -0.94931720447218
C           2.10469465566660   -4.22334929028604   -0.56237229705811
C           3.07992160015727   -5.18293893702740   -0.55826658893951
C           4.39590530869163   -4.85970559550625   -0.92289381225861
C           4.71821533270632   -3.58056201283399   -1.28685471570893
C           3.15239014995718    1.13599274893954   -1.98976065603107
O           4.10532948623194    1.76412425605353   -2.38331345700701
C           1.80001856819747    1.68795428324240   -1.65521971630177
C           1.63669818929295    3.01099422643742   -1.44502146429689
C           0.52990310692146    3.61577546410962   -0.77585239860576
S           0.00537508483781    5.25688142193188   -1.09577184966602
C          -1.22285658959096    4.96036729500694    0.12470815288107
N          -1.12539959521289    3.77272980203328    0.65077486627278
N          -0.17575730904783    3.03759571898240    0.15484023338927
C          -2.22020002097877    5.92288966203469    0.45515092026622
C          -3.12955097931535    5.70649738563306    1.42592165183956
C          -4.17938414451408    6.60614139785332    1.75788825668381
S          -4.54090673061087    8.08470868398086    0.86698515710422
C          -5.86985809665402    8.28406799291223    2.00073156169223
N          -5.92362833097207    7.32174985675157    2.87929442275752
N          -5.00764412400694    6.41093495835437    2.74413211307146
C          -6.78779036095435    9.36937011629020    1.91825911662301
C          -7.80118295329293    9.51385548145490    2.79775426931562
C          -8.76259554259272   10.55789937209345    2.69693520829871
S         -10.06923026310116   10.73744770084135    3.85805457699971
C         -10.58601150541305   12.09929896930915    2.86496045810879
N          -9.79984087066246   12.29027668235062    1.84188120022076
N          -8.81060942532990   11.45667980236418    1.75112473848107
C         -11.74745966007976   12.85698258982940    3.17366770654268
C         -12.22382885370080   13.84288048966832    2.37484057098426
C         -13.40694123360253   14.54923231021784    2.71342843010371
C         -13.99173417569598   15.51270515555678    1.94875667011430
C         -15.21640967552944   16.23766100292709    2.25011156829346
C         -15.93036756229504   16.19473028491856    3.41895194112798
C         -17.10850569668007   16.93589120272351    3.65426258126941
N         -18.07059500037022   17.50626950069204    3.91252258093196
C         -15.59998533287084   15.43385228972161    4.56037417082002
N         -15.40208770275584   14.85336341793375    5.53148281095387
C         -15.54465646278219   17.05672725054093    1.08949106227082
C         -14.51974376891738   16.89926671934096    0.11312330416668
C         -13.50362137162295   15.95674927020016    0.61047678055555
O         -12.49146888020798   15.61461252653682    0.04065975453265
C         -14.55663998375893   17.55279745995204   -1.08503885253037
C         -15.64529463065812   18.40594613451942   -1.37146043877670
C         -16.67965576029428   18.56312395670246   -0.40371552028538
C         -16.61148709448271   17.87744262347666    0.83020160298197
C         -17.76594545916241   19.41100408357469   -0.70260381863120
C         -17.82846288630387   20.07302399008992   -1.89835772695766
C         -16.80846161164872   19.91902062226935   -2.84949823729436
C         -15.74004997417390   19.10357745582577   -2.59165829513788
H           5.06159837294072   -0.97457635757264   -1.94285121839769
H           0.39252416010085   -2.17323215432737   -0.65642571691284
H           1.08969067668186   -4.46749834161113   -0.28561378721256
H           2.84284102758383   -6.19722423874927   -0.27433141103518
H           5.15273446541483   -5.62962692183790   -0.91369203829490
H           5.72953777553236   -3.32633646387505   -1.56849285858934
H           2.44396803936408    3.66625439356234   -1.75094294101047
H          -2.22635026678585    6.83630561264347   -0.12373244151716
H          -3.09419150299262    4.79482548224469    2.00459465863142
H          -6.66411597627062   10.07649984359669    1.11185513463934
H          -7.91227566054388    8.80775548855392    3.60728720881359
H         -12.26174377152949   12.59693759387389    4.08995765673072
H         -11.70535391908060   14.08831568446834    1.45994260072919
H         -13.87588116929822   14.26893101139256    3.64870505199825
H         -13.76474421851143   17.41664524255951   -1.80654817343967
H         -17.41203774439645   18.01655345195435    1.53912012997594
H         -18.54816586674401   19.52710753620746    0.03315891690407
H         -18.66467085305553   20.71962578976529   -2.11825884207413
H         -16.87408249868466   20.44936714768616   -3.78768826509995
H         -14.95208018984313   18.98056050667891   -3.32015576450951
