118
 SCF done       -219.546308897845          0.000706808543
C          -0.73295409390894    0.68135465712522    2.81195919851222
C           0.48436046529556    1.29760533535484    2.90816037189500
C           1.22520158572573    1.37798507785193    4.10603033416326
N           1.85235893824307    1.48128298069237    5.06145780722785
C           1.17272646907319    1.85089130067104    1.80765267653279
N           1.79769400905490    2.27153903356808    0.94221315056694
C          -1.37011752274791   -0.11499060534713    3.85316391465883
C          -2.33108916791680   -0.97599323623809    3.24442985527272
C          -3.06160275596144   -1.86694432972599    3.97748952823917
C          -2.87186206633929   -1.92816691011109    5.37596710625810
C          -1.92694533302579   -1.05687184200116    5.99266708303417
C          -1.17668938555326   -0.15145966483710    5.20844830066414
C          -1.75655322248559   -1.12044462520630    7.39073559943380
C          -2.48072502969769   -2.00330588451440    8.14452262314595
C          -3.40836538929740   -2.86255615714996    7.53631528588542
C          -3.59926636920398   -2.82637971743111    6.18174063110577
C          -2.38075323637333   -0.70928780414112    1.79770033805420
O          -3.02441219527812   -1.27827077660135    0.94913460890288
C          -1.50194790042250    0.48638987671005    1.59308754413348
C          -1.62440180128784    1.21370664757910    0.46289313130066
C          -1.15776756538181    2.55421090501348    0.19160645580831
C          -1.09974061538651    3.52134282430773    1.22069200013552
C          -0.68111826019757    4.80918762993649    1.00007463247550
C          -0.29961789201045    5.14180762780421   -0.29877255390402
C          -0.38428752592490    4.17918458017900   -1.33708923611404
C          -0.82382003566078    2.89187834600307   -1.11927345293251
O           0.00126751870204    4.77985293963354   -2.47781627511428
C           0.30175558767161    6.05212401212423   -2.11474702562072
N           0.14197709789299    6.30671053274269   -0.84261458058859
C           0.68864669122753    6.96464152485936   -3.13819329192773
N           1.11539356864761    8.24215093850356   -2.92884448135964
C           1.27116019472069    8.91263411338020   -1.66009343430320
C          -0.04943117596592    9.50461042831074   -1.17802844988080
C           1.33474332285795    8.91684573803589   -4.15158215088266
O           1.68483177309003   10.07325313813660   -4.22742866049163
C           1.03331135597742    7.92493890026588   -5.16387354285172
C           0.64451151470343    6.73492618271917   -4.51183201173378
C           0.25814135442261    5.76514501701333   -5.52451459118761
O          -0.13806820369379    4.62719590127614   -5.46089189507634
N           0.42110101686152    6.46821454318694   -6.73914486264987
C           0.19210504429792    5.82878493239236   -8.01237978139022
C           1.50091352462053    5.50611205633399   -8.72747101570693
C           0.87929295517124    7.74597324779969   -6.54335359099778
C           1.02375364449908    8.70579150372377   -7.56616710684113
C           1.67625245111771    9.89315773915266   -7.38974727678127
C           1.68654541914498   10.92723194762781   -8.34860312206492
C           2.71896433214056   11.80944064586654   -8.63803897950883
N           3.97829050314275   11.87471358283101   -8.01056341759828
O           4.26252758613195   11.01212088801978   -7.19712993327190
O           4.71130605458974   12.79383781576843   -8.32706993584466
C           2.35903709190405   12.60790313174982   -9.77300964007355
C           1.12688140704929   12.22447195668675  -10.20985093119100
C           0.61396921711857   11.22365119631509   -9.32472311279108
C          -0.68530701475219   10.77236516171192   -9.23820808404555
C          -1.35282641042801   10.31405274010903   -8.04385473190281
C          -2.65750110813751   10.09658101976210   -8.33095477170956
C          -2.87635405860850   10.36197059481868   -9.73172676443360
N          -4.10360480270630   10.02344321915916  -10.34747007988251
O          -5.04470171252757    9.80543857873040   -9.60639988217944
O          -4.14770793632332    9.92025213087933  -11.55956342015988
C          -1.69759986800243   10.81180411607433  -10.30597585996641
C          -1.43421304711375   11.18498967181986  -11.65462158536065
C          -2.32175992013428   11.83452001360821  -12.45056228288322
C          -2.03415881443684   12.15723910745770  -13.79763355711465
C          -2.86526874195353   12.88595699093353  -14.59691867061693
C          -2.70143563956017   13.15855689382734  -16.01375521243608
C          -1.56526090381300   12.96734626388413  -16.75703498240715
C          -1.46157538392267   13.26685161528443  -18.13188193937430
N          -1.31411408861536   13.48742728842831  -19.24862414945872
C          -0.33814105711266   12.48833740854026  -16.25297066740156
N           0.69318605292140   12.12110861719694  -15.90588908181005
C          -3.95316562058812   13.72394855958328  -16.50294852852795
C          -4.83374211656544   13.90721208334238  -15.39796635325023
C          -4.17278606111350   13.45834723914928  -14.16216630774460
O          -4.59439607089026   13.56401708093564  -13.03165411096234
C          -6.08607632539969   14.42834242324079  -15.55058484342286
C          -6.52804722246464   14.79094459643727  -16.84226293880858
C          -5.65633919866860   14.60534330924091  -17.95446602325540
C          -4.36281086611177   14.06740035830557  -17.76468999407281
C          -6.10947380724687   14.96812317868442  -19.23927057406361
C          -7.36190129591337   15.48949752760012  -19.41845388880860
C          -8.21887727592865   15.67176548818345  -18.32268254725480
C          -7.81075955083761   15.33003966245666  -17.06185001835610
H          -3.77801374487605   -2.51580947905266    3.49608682914423
H          -0.47400548080337    0.50291874946161    5.70060382889224
H          -1.03873376536740   -0.45966072061320    7.85398520761233
H          -2.34245973532831   -2.04491050655816    9.21440858175379
H          -3.97122631991487   -3.55270805313151    8.14659152826798
H          -4.31207912854749   -3.48515022909513    5.70789238088433
H          -2.19724307595094    0.74081269078259   -0.32908776687089
H          -1.43024357436173    3.23737800203165    2.20903011092006
H          -0.64651893153727    5.54253217302777    1.78847894275958
H          -0.87690969029942    2.17399116878738   -1.92108394005126
H           2.00104868902221    9.71030961481148   -1.82091969824149
H           1.64772042691038    8.19611708285222   -0.92906625493391
H          -0.44659083575378   10.19373737641762   -1.91939536762116
H           0.11326739161630   10.04557062576901   -0.25092107767968
H          -0.77014233676455    8.71180794559347   -0.99771069151212
H          -0.44402841475579    6.46650755412408   -8.63396756220525
H          -0.34806377553565    4.90433059860674   -7.79072437788450
H           2.07377663574806    6.41063763719347   -8.92031726283995
H           1.29108987256723    5.01606353655035   -9.67391312659663
H           2.10394189824143    4.83835890116457   -8.11733691897462
H           0.59453427200701    8.47466466332594   -8.53195838672186
H           2.27424491944063   10.04660444934139   -6.49829087048989
H           2.99074705055399   13.37188334485196  -10.18563556377435
H           0.56915884832647   12.68797726060092  -10.99968246149480
H          -0.89888354735773   10.26839330980262   -7.07428946528775
H          -3.43595918267981    9.77624434911987   -7.66512612848871
H          -0.44237423516277   10.96968664746351  -12.03406415395254
H          -3.28005045102798   12.14337915928579  -12.06183720028470
H          -1.11924580671673   11.75259472742830  -14.21229242570822
H          -6.73300302946468   14.55749441669454  -14.69567719762172
H          -3.72945844933991   13.93492804774595  -18.62750796215535
H          -5.44622273245264   14.82673003851139  -20.07993596290225
H          -7.69956754576137   15.76437006575227  -20.40641390254860
H          -9.20394491104915   16.08387328289006  -18.48257002243690
H          -8.46589638521068   15.46751881054850  -16.21417364767438
