130
 SCF done       -246.634260025674          0.000588245253
C           3.73140266443281    4.34029394680841    1.12384071516793
C           4.03269822658748    3.00733352791209    1.15953172230530
C           5.17457596466332    2.47097329265558    1.79185101879412
N           6.08592294153131    1.98780190584986    2.29360636972166
C           3.26128114264337    2.02052375278290    0.50851211598658
N           2.68940342172366    1.19788133681823   -0.05087431107839
C           4.54625628556394    5.43355423123748    1.63184605513179
C           3.96500111961986    6.67031209725926    1.21902589214047
C           4.53180089625016    7.87230550397365    1.53991501017104
C           5.71980333479808    7.89310933106783    2.30227138812766
C           6.29937690871673    6.66180190150973    2.72781143546331
C           5.69365529111078    5.43289412282242    2.37998749081682
C           7.48049647640632    6.69706355430793    3.49585773660454
C           8.06453100653648    7.89014390490435    3.82624248829646
C           7.49473800793754    9.10104395502730    3.40492926122450
C           6.34717983900428    9.10317426195289    2.65915144067503
C           2.73207469643421    6.40687789615739    0.47228497464047
O           1.95440866064822    7.21866443444583    0.00842793152103
C           2.57361580727941    4.92809689240608    0.47123235066680
C           1.42113843491721    4.32665031720759    0.09164748470832
C           0.37844112818418    5.02963912364868   -0.59238459914666
C          -0.92524907968420    5.18672327862193   -0.17455296277923
N          -1.45844462740576    4.64228323512842    1.00888388933044
O          -0.68811705612128    4.04666994400525    1.74635612253280
O          -2.64468417260037    4.79618663740996    1.22140314170100
C          -1.62120290646574    6.06883886505672   -1.07753243820135
C          -0.74231662792014    6.48781960384312   -2.02149699386149
C           0.53025343148048    5.84846413449924   -1.79567378126704
C           1.62536988023005    5.82306583504638   -2.63610023981400
C           2.53130386728979    4.73257667411657   -2.79995009227155
C           3.30807025997978    4.96663783894153   -3.90026971149544
C           2.97974278125640    6.24848211997539   -4.43238216808065
N           3.69004310672344    6.84583564591844   -5.49307998551601
O           3.52749286704115    8.03575610826008   -5.70278705024000
O           4.43970930142868    6.12950036505716   -6.13101750737954
C           1.96221930192441    6.82376380880431   -3.66356852992153
C           1.46631244213179    8.13260777907369   -3.75062867705799
C           0.98347188448413    8.82839824857003   -2.66671858629182
C           0.49826505861021   10.13685770542022   -2.76577560804954
N           0.21314169827309   10.94017650566649   -1.68991954249121
C           0.39778070939440   10.60422367951192   -0.29661477814845
C           1.86055084384171   10.70738067449176    0.12316147314086
C          -0.20100398071198   12.22558783468264   -2.08234273124550
O          -0.47398582419715   13.12304095613778   -1.31759980030512
C          -0.20704117610067   12.15987482811126   -3.53464588423871
C           0.21217615221304   10.89302574188129   -3.92732738400441
C           0.18355682816083   10.85311127427374   -5.38358066045689
O           0.40928645624446    9.96233980891311   -6.16729765816729
N          -0.20691430255973   12.15588858880979   -5.76641587988083
C          -0.38553470109484   12.47439254849375   -7.16494785822823
C          -1.85900036830326   12.49474259164158   -7.56051449465583
C          -0.45165191947460   12.95298380497057   -4.68008523189605
C          -0.76888859172298   14.30955310724178   -4.56651972883628
C          -0.94219734126992   15.26294461825423   -5.54199599853886
C          -1.08906900610147   16.62921417145533   -5.27566824551770
C          -1.67527964851811   17.58691731501210   -6.12409562080134
N          -2.18135155305053   17.38169296833632   -7.41465503833229
O          -2.90186460641952   18.24998012260229   -7.88054275712357
O          -1.88927218851305   16.35395835322775   -8.00822823241150
C          -1.83099421817713   18.80821759819428   -5.41627699140239
C          -1.39274241410777   18.63037565705357   -4.13181853676130
C          -0.88883607779378   17.30393308772508   -3.98802356004815
C          -0.24360745097734   16.80953642536126   -2.85535144810377
C           0.95888328739263   16.05616902702999   -2.78933480345808
C           1.37960315334601   16.01303943955191   -1.48715514579520
C           0.41480477024627   16.66881289308546   -0.66553049688381
N           0.49833525490925   16.71998300781818    0.73763330257569
O           1.46517223012045   16.19490135112523    1.25988619386764
O          -0.38356265075835   17.30017697900880    1.34742963975478
C          -0.61468021406827   17.15511815093774   -1.47019508013969
C          -1.86341363586312   17.69675861191352   -1.11023527453508
C          -2.94655225689119   17.62761587582851   -1.94592889133433
C          -4.13393631630539   18.37130903156845   -1.79177305558549
C          -5.04510165174323   18.49223435417290   -2.80588827035711
C          -6.20861067070955   19.35960605102267   -2.83595359083508
C          -6.84393259397663   19.90044891523870   -1.74867093535316
C          -7.98438119411443   20.72664492234817   -1.83353295378341
N          -8.90842495419354   21.40720213972052   -1.84123833244719
C          -6.46910839066420   19.67395278217905   -0.40713798925179
N          -6.22145451071902   19.52187228117839    0.70310924410565
C          -6.60170282989204   19.52343958873336   -4.22976593058216
C          -5.78403594472064   18.67594665742336   -5.03467477340653
C          -4.87026208396983   17.91820690485790   -4.17452878029277
O          -4.13361188506342   17.01222992539867   -4.51296621818065
C          -5.88545575660522   18.65659704070672   -6.39742348761125
C          -6.83432286981440   19.49163819288482   -7.02611078078232
C          -7.67316383334532   20.32353848628397   -6.22794342121704
C          -7.53883869269885   20.32917281362020   -4.81983755545087
C          -8.62139523333871   21.14442550803015   -6.87041286902424
C          -8.73249245401313   21.14813917349343   -8.23502277928701
C          -7.89930468098099   20.33614004856526   -9.01924460628910
C          -6.96939260589729   19.52423645797655   -8.42779545451941
H           4.08011247675103    8.79881038372452    1.21821061353061
H           6.14957926735962    4.51677727585275    2.72095525538081
H           7.91615954655689    5.76277401013747    3.81731978686257
H           8.96928344539718    7.90687258033904    4.41462076525693
H           7.96892780521708   10.03232113480096    3.67498357556799
H           5.90340221265541   10.03243886961262    2.33358221211995
H           1.21744189039173    3.29938578944218    0.37028877352428
H          -2.65824230527790    6.32537480778220   -0.97549762048730
H          -0.96316998984378    7.10128194060134   -2.87312916220842
H           2.51173910955772    3.82933126550302   -2.22005342010625
H           4.05849119022410    4.32213781350090   -4.31822908860538
H           1.56996604158616    8.63437878674533   -4.70667439430948
H           1.05341322310425    8.38330492614675   -1.68448739760664
H           0.01986035845783    9.59595443331433   -0.11189486425218
H          -0.20006402845053   11.32223195300907    0.27089479422920
H           2.46962171076666   10.00377315215363   -0.43974145367414
H           1.94422317039949   10.47839004049399    1.18174099866116
H           2.23122393712776   11.71568981246229   -0.04579834540930
H           0.13193285279509   11.68659984150357   -7.71978174542062
H           0.09621289644440   13.42993879554974   -7.38482901447543
H          -2.29242431136974   11.50515808888487   -7.43741865793534
H          -1.95046060158566   12.78935126805148   -8.60152743620272
H          -2.42320051389940   13.19841098632632   -6.95336995634005
H          -0.87158154878215   14.61867463512980   -3.53373442676192
H          -1.03376134985687   14.98320132536714   -6.58167792246873
H          -2.23819449047818   19.70373050408364   -5.84680886275247
H          -1.33288314240079   19.38522849550945   -3.37119199605518
H           1.49656385123491   15.69222661987368   -3.64412088372956
H           2.27721487620847   15.56313889684584   -1.10744640519884
H          -1.95173109530411   18.14660107308174   -0.12841599279210
H          -2.89197144269493   16.99187836099485   -2.81777468275912
H          -4.25956837261275   18.94864175265739   -0.88428908976660
H          -5.23760608064791   18.03341227382925   -6.99469181320962
H          -8.17347464484544   20.98423406162026   -4.24405731803087
H          -9.25867434770498   21.77140533578688   -6.26428672955452
H          -9.46223761145277   21.78083956127342   -8.71755092391878
H          -7.99769044648264   20.35791396981497  -10.09407437144625
H          -6.31895361259085   18.89988918532152   -9.02156590886266
