112
 SCF done       -203.377552633266          0.000995223857
C           1.04734881505319    2.58609757115120    1.31726646897634
C          -0.16107225220165    2.74800296829593    0.69646873882890
C          -1.25957714094186    1.88331609222857    0.88825396314115
N          -2.18380931930827    1.21764275758585    1.02700473992235
C          -0.42627739303313    3.74787995523374   -0.26121455087141
N          -0.68360698565972    4.51606147725101   -1.07396809855595
C           1.43601607332092    1.44098691763900    2.13055460478785
C           2.86028293331607    1.37930967836812    2.18152571945117
C           3.51127185662795    0.38055695967283    2.84750254955739
C           2.75578286999855   -0.60965929874532    3.51425333249052
C           1.33210796286474   -0.54178127162457    3.48429695840588
C           0.68425068262161    0.49810467241532    2.77992042040765
C           0.59058458534971   -1.52977946032504    4.16382059868145
C           1.22247442431076   -2.53920920210547    4.83742364385063
C           2.62370561431526   -2.60706554104208    4.86377468706272
C           3.37392070363436   -1.66342262444787    4.21608802310320
C           3.42565231452828    2.52494123780674    1.45073772782833
O           4.58459056110425    2.77581756198713    1.22424953264567
C           2.24635872900573    3.37729204210452    1.09041518748411
C           2.44477068430574    4.66836596122967    0.75185380641346
C           1.48451555568708    5.74609181696357    0.69246426882278
C           1.69784213226632    6.80902273363961   -0.18239470805779
C           0.79024164749437    7.85110551241751   -0.25598156278185
N           1.15100829969684    8.98971492368963   -1.06498777819661
O           0.69847718166900   10.06930139580816   -0.74512870864815
O           1.92108808288323    8.80434973434583   -1.98205655686373
C          -0.37173558620993    7.86481030820318    0.52869396612717
C          -0.52624226567494    6.84210068259327    1.46897919718357
C           0.37758932648771    5.80874099478119    1.55092433031857
C          -1.38476761210178    8.90122325414099    0.46055674321530
N          -1.98755144954334    9.37290406913623   -0.67418197397203
C          -1.93259147297884    8.79603947391438   -1.99826865585269
C          -2.40963961581729    7.34854948757522   -2.01412311390473
C          -2.89244593303030   10.41082350262582   -0.37496453485419
O          -3.55024784871802   10.99288144220315   -1.21719262663679
C          -2.82458952564584   10.55187402401012    1.06049531363772
C          -1.90481414812243    9.57802992170927    1.54463795852395
C          -1.85598599763315    9.68270658390925    2.98925307552730
O          -1.23064094173770    9.07107571191793    3.82949089727083
N          -2.77871456200440   10.70286053479086    3.28564818681356
C          -3.03924329602131   11.12175959681064    4.64321014508353
C          -4.23072063066300   10.37666046083947    5.24043443733036
C          -3.35213195217153   11.22583668958528    2.15365470742249
C          -4.34710273982434   12.24897280060187    2.17857648154371
C          -4.65141372771542   12.94157726777371    1.06368267585603
C          -5.68207314124293   13.94237066792758    0.91350255073572
C          -6.13573635401258   14.78869880438887    1.93828343439693
C          -5.72375824593181   14.95925258819861    3.35554493280238
O          -4.90273843108253   14.37285129292617    4.00792156127702
O          -6.45032901868896   15.96539959105020    3.89214105023580
C          -7.34399971795934   16.52589439933399    2.95098910953349
C          -7.10514429933967   15.76042261657168    1.69233642023122
C          -7.67418673300136   15.92901210935134    0.44521010887932
C          -7.23361981018737   15.11089174866964   -0.57647614315809
C          -6.25202136673480   14.13380114472343   -0.37485835824836
C          -5.84652351993107   13.29838533851908   -1.48809845600306
C          -5.86523956619132   13.69353869115660   -2.78057329508422
C          -5.39749438651868   12.84459657782417   -3.81914835718264
C          -5.39120882308689   13.18579307104646   -5.13927383092799
C          -4.87070904102750   12.39736457519243   -6.24422896489739
C          -4.39642104807139   11.11372679712918   -6.18988114200146
C          -3.91219542074129   10.40335954681146   -7.30966820561959
N          -3.51337575417708    9.76476151549654   -8.17668615434566
C          -4.33460162280800   10.29021345414268   -5.04668283448792
N          -4.25199571545561    9.52437022805375   -4.19489014938205
C          -4.96278365982511   13.20915532100503   -7.45331327885138
C          -5.57667765130476   14.45040031400674   -7.12310404155045
C          -5.88842795284037   14.47746665893889   -5.68469069592638
O          -6.44650302784141   15.37588761981026   -5.08774609888456
C          -5.80247218966976   15.41835273157694   -8.05871516372967
C          -5.41178630125239   15.18807776253777   -9.39622649020566
C          -4.79113996745365   13.95138762844836   -9.73551823985241
C          -4.57376700100900   12.96669387922454   -8.74476987052157
C          -4.40159790850389   13.73264995899666  -11.07282417272042
C          -4.61476843009346   14.68740639448558  -12.02935956613588
C          -5.22679448275569   15.90449074632965  -11.69387584145617
C          -5.61681602661384   16.14940225629090  -10.40531415237019
H           4.59039445700809    0.34706440349510    2.86678142345266
H          -0.39415588015227    0.53186817819308    2.78102254082444
H          -0.48777669960915   -1.47528240028056    4.13761684583800
H           0.64583951764787   -3.29188061541892    5.35368193533561
H           3.10554211726045   -3.41048075838479    5.40038062787578
H           4.45285172639736   -1.71045028844931    4.23335213610945
H           3.47639638454297    4.93857243496995    0.54795950433025
H           2.57279956589429    6.83714262791704   -0.81535774421674
H          -1.37736534780800    6.87206572980326    2.13001928718972
H           0.24547327912927    5.04699748224421    2.30458894994615
H          -0.92735083698550    8.87188961809941   -2.41981379144147
H          -2.60418795509015    9.40551368968656   -2.61059975236201
H          -1.73605924036846    6.68888402728236   -1.47148251200641
H          -2.46765609129379    7.00783995782403   -3.04331357638072
H          -3.40198939471517    7.27810842731534   -1.57521823267236
H          -3.20913047055242   12.20050525438918    4.66192994378330
H          -2.13908296056248   10.88802620446785    5.21831246533324
H          -5.13347207350345   10.56049504150676    4.66224772617855
H          -4.39696514465125   10.71163777564876    6.26014657011602
H          -4.03530047274840    9.30688677062543    5.25096447900950
H          -4.84328856395346   12.44209748385688    3.11427442866675
H          -4.09476328482296   12.70995169979324    0.16761133985438
H          -7.12290654217801   17.59378893624207    2.84360177547199
H          -8.36872788922358   16.41911172236024    3.32528888264476
H          -8.43101820635582   16.67831619280156    0.27468958236184
H          -7.66994651168280   15.21390958806106   -1.55754106904079
H          -5.47904239623607   12.30507279031844   -1.27046876456853
H          -6.19471249303016   14.68287325601868   -3.06065686861970
H          -4.99173022776482   11.88966238391503   -3.50861332254638
H          -6.27150493413880   16.35040344481844   -7.77983783213002
H          -4.09925680776805   12.04335173946419   -9.03599808126043
H          -3.93103895473936   12.79405248216586  -11.32646918810575
H          -4.31250625622309   14.51042856017455  -13.05070285665413
H          -5.38716222272963   16.64686161958638  -12.46145474311133
H          -6.08828121271245   17.08465712712703  -10.14053799394486
