121
 SCF done       -213.498390446196          0.000653894392
C          -1.48798013086328    5.42772910607473   -1.24977686747245
C          -2.20093397317755    6.35992548369545   -0.54421037587444
C          -2.54309470546882    7.62965747171797   -1.05262746242902
N          -2.83818319460148    8.67162265280793   -1.43129740870773
C          -2.75387324683797    6.08441049283883    0.72315476175647
N          -3.24285949661132    5.84749682283333    1.73428157064014
C          -1.12191789472717    5.51264984984971   -2.65738428211429
C          -0.90221875079075    4.19064569278788   -3.14938906362565
C          -0.57815980419039    3.95851407509343   -4.45561916314636
C          -0.44392997015933    5.05427791922606   -5.33726127994610
C          -0.64694041023255    6.37773101445130   -4.84691075170935
C          -0.99182454942746    6.58919501545229   -3.49217932944386
C          -0.50006053815664    7.46117387110092   -5.73646012664712
C          -0.17046951922799    7.25032561787679   -7.04783360621128
C           0.02754540273509    5.94771648762793   -7.52993879209863
C          -0.10727747527374    4.87308256428764   -6.69330048607804
C          -1.06588821145585    3.22665147519900   -2.05058571483425
O          -1.03196497892689    2.01897883047383   -2.08738163529226
C          -1.22533308428960    4.06743270396299   -0.82336663112870
C          -1.01016941873908    3.51003999394680    0.39390054229598
C          -0.70016256524269    4.14227315779828    1.62791881024871
S           0.10846734550871    5.67640208617127    1.68165229066691
C           0.22351080391586    5.55504749812850    3.39963154151130
N           0.85036240779080    6.61927228856191    4.08359032264456
O           0.93159308138094    6.54495492143200    5.28985839830414
O           1.26405626966439    7.53154323962376    3.39449091092007
C          -0.32178509188034    4.41339867151558    3.91397265634977
C          -0.85712287989430    3.57993106367743    2.90719123329659
C          -1.54085031425179    2.34108929731528    3.11865071901060
C          -1.58114642716217    1.68441951824206    4.30286522649009
C          -2.20723622329965    0.44848987460020    4.61270860485471
N          -3.09990025550656   -0.30442806592990    3.88825256590935
C          -3.68383983910611   -0.03110168764622    2.59656117261093
C          -2.80495807628264   -0.54581681925782    1.45745755374649
C          -3.46017762870735   -1.49107287863781    4.57198467518237
O          -4.24620741099026   -2.30327867581260    4.13513000771005
C          -2.70877296980133   -1.43305623964738    5.80431089530662
C          -1.97264652792435   -0.23534693804302    5.80850151059668
C          -1.22160556591997   -0.18271207657501    7.04577260011308
O          -0.44754009171328    0.63686253229244    7.48696278144736
N          -1.57139841002525   -1.37609004558319    7.72099441005460
C          -1.00422794043699   -1.65068679152295    9.02148367633556
C          -1.97623453810995   -1.30734169385645   10.14767427272401
C          -2.45759287136627   -2.12955641423652    6.99152926136888
C          -3.05121346797457   -3.38569530705499    7.25828369130366
C          -2.94517476288282   -4.17614197021303    8.36036912919291
C          -3.49279081871349   -5.48638482390305    8.42049389993785
C          -2.82007195288211   -6.58167775508775    8.96004653119216
N          -1.59433230173363   -6.58926369787603    9.64172681305999
O          -1.17473760456175   -7.66812255821181   10.02563886801177
O          -1.01111962454482   -5.52881566157814    9.82796764022478
C          -3.49879742984259   -7.79196241479029    8.58706768002568
C          -4.61395244908923   -7.46141213555262    7.89546030200814
C          -4.74314592017151   -6.02195858528682    7.85901223731336
C          -5.88921735841244   -5.30945437016823    7.57236500310986
C          -6.02098493441814   -3.88588924167211    7.44008075685488
C          -7.14357733344544   -3.61028829645078    6.73029895511611
C          -7.83723452674660   -4.83811910321876    6.45626766214146
N          -9.07294397574683   -4.86684396948644    5.79874793012268
O          -9.61435642934872   -5.94651258750024    5.59442497571634
O          -9.55003891697367   -3.79759422304769    5.45408501162638
C          -7.16578591060015   -5.88909447314453    7.07843461682917
C          -7.71023217630526   -7.17268959049651    7.29617931337950
C          -7.44937858685240   -7.94138507265557    8.39574964475467
C          -7.94975245847605   -9.23285508208557    8.67124931363452
S          -7.05622334899172  -10.13320036551260    9.87782849956930
C          -7.95300670080177  -11.57226186443830    9.54096489819784
C          -8.91473771024372  -11.34921610152468    8.56315281678056
C          -8.96069605033903  -10.01822675502756    8.11192775324674
C         -10.06686672777733   -9.49102306265221    7.24188440910319
C         -10.78298327385019   -8.32189214666164    7.92839565937016
C         -11.09345192942180  -10.58702367351396    6.93541967831154
C         -10.41603718016814  -11.92302882274532    6.68031874723742
C          -9.77545099804558  -12.43582754919693    7.97876034827529
C          -8.98671483997790  -13.67474264695031    7.65672334407530
C          -9.43617057888887  -14.90378684177796    7.82882833694284
C          -7.68705612818352  -12.78780749214243   10.25545145857512
C          -6.73694942594656  -12.92299559061093   11.18043282438378
H          -0.42379485125161    2.95103899948823   -4.81231743358417
H          -1.13144235748597    7.59999705970501   -3.14132469741487
H          -0.65640736225371    8.46187653711766   -5.36172977487458
H          -0.06059757993393    8.08679822934202   -7.72136058352787
H           0.28813536786584    5.79995699317684   -8.56713234487575
H           0.04416665165615    3.86801444541403   -7.05873807487699
H          -0.97773645472432    2.42425147205767    0.39147129260156
H          -0.33728436353621    4.20462375410327    4.96807748067109
H          -2.02442239108472    1.93174891306077    2.24834848170055
H          -1.03986304879651    2.08751920889848    5.14871971825725
H          -3.88487611046154    1.03869637262287    2.50785003702051
H          -4.63760896144840   -0.56749953295166    2.57631677962012
H          -1.79112190854197   -0.15754458164985    1.52947974597178
H          -3.22744640208994   -0.25343105791951    0.50015253414054
H          -2.75492667326350   -1.63091040247980    1.49727781076549
H          -0.12194549036904   -1.00879432341856    9.10192453600145
H          -0.68016154520530   -2.69229032943990    9.07391388929436
H          -2.19273253973906   -0.24173149744303   10.13873446546047
H          -1.52961449158200   -1.56390916997562   11.10379699839026
H          -2.91281567252461   -1.85049015225341   10.04252261764374
H          -3.63339274790905   -3.74746764014823    6.41866635457868
H          -2.29907492670536   -3.90614380984467    9.18060728859441
H          -3.12677355041266   -8.77294620752044    8.81157818113451
H          -5.29324197040586   -8.14773672025181    7.43264493468357
H          -5.32178904707591   -3.16210074660936    7.80409614308650
H          -7.50079163272359   -2.64800529963974    6.41682040508923
H          -8.46118678077743   -7.48107958948826    6.58622607883158
H          -6.75329916181747   -7.56289029984930    9.13463289787598
H          -9.64414261652519   -9.14146319569253    6.29408653485864
H         -11.23241554939439   -8.65650542160516    8.86149129115007
H         -11.56746470103114   -7.94741152285624    7.27673929729985
H         -10.10801626525601   -7.50191137159390    8.14867205390546
H         -11.68236943041398  -10.28723837010585    6.06803323521985
H         -11.77687463937604  -10.69276086456798    7.78131678834415
H          -9.64449444866218  -11.80803163218139    5.91556801163284
H         -11.13748889389183  -12.65926727454774    6.32372843690411
H         -10.57355265217563  -12.68976306036149    8.68737982439876
H          -8.01951801295448  -13.50110318359965    7.20343966692825
H         -10.39962133461572  -15.09975801849758    8.27153652985364
H          -8.86158894875452  -15.76630865325012    7.53855299896594
H          -8.32276407892435  -13.62386271616603   10.00150898206140
H          -6.08825428759466  -12.10501778075758   11.44923893953320
H          -6.58182463597184  -13.85435669064524   11.69462290169192
