126
 SCF done       -246.322615484486          0.000621317570
C           4.22702911216955    2.73983642721763   -2.73181881836946
C           5.34919757764610    1.98196253461357   -2.53543982909967
C           5.37267419189984    0.57295063465860   -2.60060664034091
N           5.44607723487958   -0.57118139874298   -2.64786317620545
C           6.60224672497994    2.52109709953681   -2.17254874679370
N           7.62315675797822    2.90747256224565   -1.81790107446820
C           2.87187207396258    2.24943636430514   -2.93011992641857
C           1.97332799043021    3.35489618482038   -2.86623309256586
C           0.62343395110125    3.19095938375871   -2.99832465586311
C           0.10321344699845    1.89428108500814   -3.20605874628179
C           0.99710304143895    0.78619415210885   -3.28020907484317
C           2.38935909340649    0.98465880326614   -3.13931774061362
C           0.46618416501455   -0.50212615863618   -3.49307192192784
C          -0.88293010386978   -0.68999295067239   -3.62463806733656
C          -1.76222270668591    0.40080568429230   -3.55037956954078
C          -1.28000399044888    1.66511112726711   -3.34544045837156
C           2.72971978648194    4.59943250916221   -2.66533794881808
O           2.28776208630197    5.72476944176626   -2.58348433116354
C           4.16417636375984    4.18928862605125   -2.65640228332960
C           5.20099432836930    5.05441684084551   -2.77525336972789
C           5.11141103148736    6.47031455878445   -2.62337100111874
C           5.60070934780358    7.42084054586868   -3.49785372547450
N           6.26289428869847    7.15325661665002   -4.71189294953467
O           6.34288442159290    5.98875159738462   -5.06864026348605
O           6.72550993733203    8.09687395336041   -5.32234267997182
C           5.26875850137997    8.73920782412711   -3.02356409918715
C           4.53466832076774    8.60811779695472   -1.89364563331731
C           4.40885482220997    7.20529907336209   -1.57041753511514
C           3.88410517186489    6.65607679470431   -0.41948190490236
C           4.34375937669793    5.47596174532439    0.24128654404089
C           3.75733519813964    5.40196606372342    1.47022003682646
C           2.83450042878179    6.48717802029801    1.61144411349311
N           2.01174836853906    6.64863197596777    2.73680947489353
O           1.22817419117052    7.58848102428427    2.75986956393531
O           2.13252302726572    5.84251065657631    3.64217386934270
C           2.85621256728997    7.26201161009394    0.44924793461052
C           1.96791926298598    8.29755680806934    0.10920721197135
C           1.70308514353741    8.67207382820879   -1.18161012926422
C           0.93895758074473    9.75512804917605   -1.65589532995645
N           0.14665645510755   10.66381185815470   -0.99658548417587
C          -0.19580986051291   10.71301831654321    0.40774544884870
C           0.86500886572518   11.44543170988204    1.22533149189039
C          -0.35750374163350   11.64773295811025   -1.86864607909430
O          -1.06149084376158   12.56682060217026   -1.50955392852314
C           0.16800127362775   11.28710249793256   -3.17315609924315
C           0.94551792520704   10.12871459956619   -3.00927275791359
C           1.54281603182535    9.79332708237013   -4.28734127165442
O           2.30900180009117    8.92266437005616   -4.62826425867689
N           1.04564979050671   10.78899349363121   -5.16238053256284
C           1.40478383824844   10.80421732823081   -6.56045886857332
C           0.28966034414574   10.23724260233086   -7.43526862031533
C           0.23462421179468   11.67911721611224   -4.51681257734495
C          -0.36456943958595   12.80590135266851   -5.14109409053400
C          -1.18558262942861   13.63942113679587   -4.46456006649932
C          -1.75297267609729   14.85528131615310   -4.98317261497303
C          -3.04637907586235   15.27483506935918   -4.60616439256233
C          -3.96476184317024   14.41610277307088   -3.82683654119662
O          -3.81301019437828   13.27524798866809   -3.51278404704035
S          -5.45794383579022   15.34267143694673   -3.46194676901674
C          -4.94481507826864   16.74913297473291   -4.44906223887400
O          -5.63986675876105   17.70380547664138   -4.62606989203515
C          -3.58497323129522   16.50092092848906   -4.97673615321509
C          -2.89775253328728   17.42073973929418   -5.79586506210781
C          -1.61691425236626   16.99646781396450   -6.18550312812464
C          -1.06696745756024   15.77589543070451   -5.79476429999045
C           0.33840018508482   15.75786668288763   -6.27697591942424
O           1.18293997335287   14.92085389640793   -6.18395673042429
O           0.56737157933201   16.95195119069644   -6.90533839743553
C          -0.55553581948189   17.74600113813931   -6.90684983042412
O          -0.56210067557172   18.82171233669689   -7.41562895447094
C          -3.43591243953727   18.71967655606154   -6.10955625193999
C          -3.31119019926944   19.34171863982140   -7.29660597922369
C          -3.74254756159520   20.68030541539963   -7.55809892591307
C          -3.64144003151904   21.72585102950496   -6.69905543594864
C          -4.02581700720080   23.10079555586363   -6.99477176276155
C          -4.95327411326617   23.49027693028435   -7.92145297200780
C          -5.32381179169178   24.83339206728840   -8.14807315269543
N          -5.65637306601677   25.90733448325834   -8.37736369060131
C          -5.68504116866292   22.60431429092873   -8.74218900695468
N          -6.32203272937874   21.93870906890811   -9.42635022545104
C          -3.31120521282324   23.97009101618315   -6.07308918755514
C          -2.59183428179824   23.15738477643229   -5.14996593579612
C          -2.83582229834448   21.73541327227498   -5.43830406559431
O          -2.43740299707827   20.79044491848930   -4.79461327322367
C          -1.82387338702873   23.70006633285489   -4.15919734503335
C          -1.73721463412252   25.10514900767630   -4.04625789614187
C          -2.44874016826124   25.92502344913540   -4.97048443133877
C          -3.23639314062663   25.33569981122713   -5.98514180970849
C          -2.35099750331483   27.32635915992125   -4.84974106624648
C          -1.58987258373016   27.89235399082924   -3.86345454752179
C          -0.89117041286189   27.08451579249173   -2.95349695283579
C          -0.96356649751891   25.72078869341053   -3.04251614518082
H          -0.03968870804569    4.04171247177099   -2.94516991018268
H           3.04356085305201    0.12972105565690   -3.20734395826769
H           1.14700573039941   -1.33868976083499   -3.54796235489678
H          -1.28011996979125   -1.68065709126450   -3.78650392717647
H          -2.82359807199334    0.23417942060792   -3.65662440735173
H          -1.95242765486734    2.50844046457422   -3.28762705089502
H           6.17120245953777    4.67930923202369   -3.08392807947569
H           5.56602001341903    9.64156538420109   -3.52177300166089
H           4.18783418972776    9.40262439256976   -1.26225187960261
H           5.12441113503959    4.83761205313973   -0.12582511223701
H           3.93048653806249    4.66656634994313    2.23342801509354
H           1.44913006441857    8.74550688255230    0.94422743989512
H           2.12839665157917    8.07985335381125   -1.98241507924017
H          -0.36011471760884    9.70054637826530    0.78008302064420
H          -1.13848164742824   11.26457035271141    0.46998730406316
H           1.84666696751693   10.99623691688925    1.09365878494635
H           0.60338350755472   11.40485175269798    2.27848572523684
H           0.91679256413778   12.48679091782063    0.91706647182817
H           2.29576178703861   10.17681389135565   -6.65105827566793
H           1.65908823315291   11.82474847268632   -6.85816494478982
H           0.08181513057412    9.20799389389260   -7.15313237959736
H           0.59715189941072   10.25496880699090   -8.47686174182401
H          -0.62512923850620   10.81651934257710   -7.32948139052274
H          -0.14467755235123   12.97387713044724   -6.18369523847844
H          -1.46684086784652   13.38939385954922   -3.44762139151697
H          -4.02194831882116   19.17713603392687   -5.32599447803666
H          -2.90430542450427   18.81263532474993   -8.14809097383908
H          -4.08449711625815   20.87303060325984   -8.56815209977989
H          -1.28922579661928   23.06351889201380   -3.46994756708167
H          -3.75684307904568   25.98097296143582   -6.67514919570383
H          -2.89176948024323   27.94421307752133   -5.55135069172719
H          -1.52189439532122   28.96643941408587   -3.77873712927501
H          -0.29515892216197   27.54829168088248   -2.18196901053361
H          -0.42793797479411   25.09384101391923   -2.34490678693801
