118
 SCF done       -223.404861893805          0.000991508180
C          -1.57490918232707   -0.16421590626463    1.12146807358508
C          -0.59631173910613   -0.53409204997716    2.00392477711151
C          -0.55478976614544   -1.78376461007197    2.65963557677680
N          -0.47266963878124   -2.77644579658055    3.22942848928481
C           0.51006400496999    0.26290799863397    2.36960895837881
N           1.43699545183964    0.84930406056155    2.70816821058764
C          -2.68413651348919   -0.99539255887304    0.67632012546161
C          -3.41150613542746   -0.29073353204376   -0.32625291075784
C          -4.50768641032667   -0.83181846560561   -0.93674578060762
C          -4.93139077832155   -2.12769790907554   -0.56998028729503
C          -4.21236506897212   -2.83736144178909    0.43603179472088
C          -3.08447671400817   -2.25075386487051    1.05337489540200
C          -4.64734654364402   -4.12859415104578    0.79821027232370
C          -5.73805877894535   -4.69413401697115    0.19564672796044
C          -6.44440438383126   -3.99529355427611   -0.79517268145113
C          -6.04959615661622   -2.73976595342091   -1.17025062079386
C          -2.80227690052830    1.02478700113419   -0.55184325432614
O          -3.21439145694222    1.90248209526221   -1.27802194604025
C          -1.64264608563131    1.09403181761995    0.39435931988837
C          -0.90751329528488    2.20931941501011    0.62638235886921
C          -0.90688106151278    3.35501304840252   -0.22364837967996
S          -0.75211951669197    4.95840445972757    0.42110787024081
C          -0.88078473046171    5.69799619568847   -1.16048597822448
C          -0.94749952175467    4.71077379169258   -2.13711764658755
C          -0.96447421203919    3.40431963977394   -1.60270177115829
C          -0.89916791330295    2.39310288643002   -2.66898515457712
O          -0.72368529764154    1.20777365544163   -2.56306959210318
C          -1.02913580561833    3.17461584125357   -3.96531941764981
C          -0.84504913367974    4.63686362412119   -3.60201423919619
O          -0.59818785800383    5.52726509563570   -4.37739278266504
C          -0.87059208816211    7.12210605593476   -1.18583094880076
N          -1.42793918317868    7.97426278227920   -2.09663685895406
C          -2.32128194780970    7.67168451301288   -3.19080068775500
C          -3.58765753897263    6.96110513404609   -2.72546821911763
C          -1.17066603442137    9.32575876441901   -1.75950283076821
O          -1.58436880782508   10.26334003840774   -2.40983833664924
C          -0.38593522289746    9.26145052101123   -0.54701743169155
C          -0.25056848055714    7.90386266283029   -0.20507384330608
C           0.53365891366337    7.81399483872393    1.01049914993920
O           0.86952658989567    6.85851495836698    1.67847030883373
N           0.84564378687713    9.14560610463414    1.31519748758816
C           1.58845697498956    9.48818235356648    2.50725586471587
C           0.66440651948324    9.90266447066424    3.64861374969446
C           0.29422205353614   10.02764371531759    0.41668459650785
C           0.42223783356902   11.42372703815273    0.52424785230731
C          -0.17451693359116   12.27465311744724   -0.36879717954632
C          -0.12681795408741   13.68183307686692   -0.38933713008295
C           0.76662064400655   14.61842718628351    0.14447438576478
N           1.81195751913632   14.48497620517909    1.07592521074315
O           2.63678679762379   15.38026240442231    1.11213121443334
O           1.84157639385278   13.51279421309128    1.81745614084146
C           0.52531276052312   15.89476214126774   -0.46470849063690
C          -0.49672206565173   15.78684315766219   -1.35516305945616
C          -0.99124158133918   14.44569863757920   -1.32137001800118
C          -2.15331633347052   13.98683242083515   -1.90289058421311
C          -2.98551390820025   12.90950682339333   -1.44304077880256
C          -4.12715514246775   12.89911910116896   -2.17238580701797
C          -4.06061389114974   13.94662893517567   -3.16282127908793
N          -5.03915596644002   14.04694995845549   -4.17688221596436
O          -6.01711674557476   13.32864184798620   -4.06562538442313
O          -4.85282406875922   14.80541274953973   -5.11035966962277
C          -2.87178116403014   14.64081955983653   -3.01680962698431
C          -2.32177023943268   15.69801706310678   -3.79510914547769
C          -3.02356638391466   16.74109414643941   -4.30956020221304
C          -2.39245335374584   17.75519617729766   -5.06909124887244
C          -2.99969460444284   18.91365865485121   -5.45633102889418
C          -2.44553243068989   19.95112846053353   -6.30801468613324
C          -1.13674953254923   20.08044360780217   -6.69585878004882
C          -0.65414253505043   21.12786343941131   -7.50888587106437
N          -0.20033727493860   21.95269818915127   -8.16555101830942
C          -0.08451137815765   19.22470480232050   -6.30824500676447
N           0.82380046058690   18.58437030472568   -6.01895073058196
C          -3.52354016110987   20.87643346520071   -6.63677672623757
C          -4.69229383752518   20.48916781342821   -5.91983165802020
C          -4.40111572487104   19.29226073478781   -5.11379329155471
O          -5.13696922430889   18.75498866224659   -4.31576783622383
C          -5.86258746122190   21.18511789189719   -6.01669678669512
C          -5.92223738711334   22.31877085142678   -6.85747851991629
C          -4.76138972335571   22.70628265248509   -7.58771466760900
C          -3.56204331019515   21.96827855011345   -7.46389934531780
C          -4.83372926927979   23.83659520668723   -8.42730274415683
C          -5.99444028254141   24.55269514272634   -8.53853256461248
C          -7.13573390306321   24.17180378661772   -7.81697255152328
C          -7.10065149386276   23.07819525241493   -6.99480169592240
H          -5.04098591931350   -0.27776167280000   -1.69484949206981
H          -2.56605908874685   -2.81087409638559    1.81524661968240
H          -4.09970025037945   -4.66342313505906    1.56011284340167
H          -6.06258563627807   -5.68407279455713    0.47878369088336
H          -7.30289619001697   -4.45689229651997   -1.25937168936292
H          -6.58945793357368   -2.19711380756602   -1.93228969584937
H          -0.28538243179685    2.27762160611817    1.50982323351314
H          -2.03729469486676    3.02781822657401   -4.36308759239502
H          -0.32795975429965    2.84278664160511   -4.73219657273110
H          -1.79502948818857    7.08091909595648   -3.94347489976959
H          -2.57712204362569    8.64082366849630   -3.62856079459188
H          -3.37044474511641    5.97292251277285   -2.32692923602449
H          -4.26301686588521    6.84896557876955   -3.56863790477941
H          -4.08985265582371    7.54467972837987   -1.95651134384171
H           2.29749944152965   10.28641141899693    2.27746549461759
H           2.14112215451499    8.58818387134636    2.78936966609059
H           0.09610416441968   10.79151831303205    3.38567494384654
H           1.25580344287233   10.12002835429644    4.53294158954108
H          -0.02813237016945    9.09717900483350    3.88160446805354
H           0.98834619415425   11.81956384829059    1.35255359455827
H          -0.75296270999123   11.83054858648791   -1.16818954757170
H           1.08365113476932   16.77776700159177   -0.21581230304973
H          -0.94583862185888   16.59675300322874   -1.89523088233356
H          -2.77745819229297   12.29214111671178   -0.59240818298380
H          -4.96695301939607   12.23825810818943   -2.07290067993876
H          -1.24566451862473   15.67726951595956   -3.92697233074855
H          -4.08083474082521   16.84299377141342   -4.11806773109678
H          -1.37066736833607   17.56699943081995   -5.37539235414596
H          -6.73305475524480   20.87211670173021   -5.45954709364177
H          -2.70240178482824   22.28601124876186   -8.03230403590514
H          -3.95227757142186   24.12701429220711   -8.97984772045756
H          -6.03954612449127   25.41743872065861   -9.18347072311014
H          -8.04282434979549   24.74896697231224   -7.91616287844082
H          -7.97615424009172   22.77944030548619   -6.43720494374120
