129
 SCF done       -244.002484586627          0.000796067974
C          -2.98695063199158    4.05901928659788   -6.41489354883159
C          -3.44770936893381    5.32870869957501   -6.19020623723882
C          -4.80867922207006    5.64908032044653   -5.99372708444887
N          -5.89326490291155    5.98218707172667   -5.82341234150558
C          -2.63153159743192    6.46502679129849   -6.05778125293892
N          -2.03669228841326    7.43648473556519   -5.89970245534776
C          -3.77970170694066    2.84276365931534   -6.35335633008212
C          -2.90334632744823    1.73139235243736   -6.16664465077953
C          -3.38018351445744    0.45731538692155   -6.04805170543347
C          -4.77360857882017    0.23353016105713   -6.11851673865889
C          -5.65172322276901    1.33823574769508   -6.32453778373307
C          -5.13232863542655    2.64686305850801   -6.44087411470462
C          -7.03871197790570    1.09769994887801   -6.40483049751241
C          -7.53723342331786   -0.17081106157310   -6.28428336037845
C          -6.67280854564766   -1.25672833501783   -6.07852199065289
C          -5.32094816599410   -1.05889540785379   -5.99689357106714
C          -1.51034782685321    2.20292618083306   -6.15893577985271
O          -0.49650406890818    1.57804606908556   -5.95853180652895
C          -1.59664626040311    3.65227809403106   -6.52026587971816
C          -0.50796667945935    4.29010338395774   -7.00152914180834
C          -0.44959254110825    5.53619167296938   -7.70202579928016
C          -1.30262213047694    6.03436536675255   -8.68231981181879
N          -2.37196586695699    5.39783731668786   -9.32929870192168
O          -2.68896007772075    4.26520844778310   -8.98746175446696
O          -2.94539596742462    6.02200825633342  -10.20617297996324
C          -0.88162699846944    7.36029654389609   -9.04977667279991
C           0.15147843570182    7.71650230058599   -8.24659431732809
C           0.48974306543835    6.60853773283317   -7.39856988332267
C           1.49131692261552    6.62161827448106   -6.43510467100750
C           2.34058916006815    5.57133186083588   -6.02108273124081
C           3.35036584845491    6.10193579360016   -5.25838447995675
C           3.13571446848171    7.49642901998083   -5.07585369492014
N           4.04206831908735    8.26569194656542   -4.33016809005236
O           4.91606444074414    7.66654167529487   -3.72772037214324
O           3.93752628474504    9.48428230338483   -4.33361333752860
C           1.94621073698024    7.85730336447519   -5.73966635606368
C           1.04930345339952    8.92186433438169   -5.62333595043482
C           1.18302672851330   10.07342181183132   -4.87163855818795
C           0.19312898947099   11.04110931259877   -4.68614375202477
S           0.44186339201952   12.19046963114372   -3.40009439994418
C          -1.12090758190034   12.91272118967878   -3.65473341789998
C          -1.79465078338875   12.28085375454818   -4.72975073753710
C          -1.05444599830270   11.26820022195705   -5.31979096253761
C          -1.51466783444787   10.54467740092564   -6.54057221772599
C          -2.64977505016592   11.29856530241606   -7.24096779157987
C          -2.12396158192973   12.52694940930848   -7.97020151162054
O          -2.54766479766915   13.64613735149506   -7.85445790069719
O          -1.12453587448430   12.19836835019073   -8.79413826367031
C          -0.56869974646153   13.25777863737907   -9.56375680265352
C          -3.72236276277047   11.66310005624549   -6.22048529334908
C          -3.17288522561978   12.63748939737778   -5.17855332145685
C          -1.46682670836512   13.95652240977494   -2.78622698247915
C          -2.59325822535560   14.74554596654159   -2.83582701343913
C          -2.95738685146338   15.77867024241182   -1.95790852112729
C          -2.28676032210298   16.50291547357474   -0.95629417930759
N          -0.99909351585291   16.36432275048039   -0.41370158005632
O          -0.42495502325200   15.28820295436778   -0.46575734000692
O          -0.51462287937261   17.35626206865829    0.10779492232521
C          -3.10047430493021   17.60383570828062   -0.55038707794969
C          -4.24247980248411   17.62227855161052   -1.29441812724916
C          -4.22596583436041   16.50594549981427   -2.18034062011106
C          -5.25576608588082   16.14522104109280   -3.04083176447231
C          -5.74551035478525   14.84009748080251   -3.31909016279968
C          -6.93282675039552   14.94788308240176   -3.99345317248105
C          -7.19827860059580   16.32717763441697   -4.24466586087483
N          -8.30865479509958   16.78058603306465   -4.98165171131480
O          -9.08024579808385   15.93833493238073   -5.40273978373196
O          -8.44409229107753   17.98162319768430   -5.14256241532364
C          -6.17144664371304   17.09624004161424   -3.69870990700437
C          -5.89719942930184   18.46790882719345   -3.87734046029298
C          -4.62940926747473   18.97057821785399   -3.77966790406000
C          -4.31114757411196   20.34368115900232   -3.70651357139412
C          -3.07841799942379   20.77520497073968   -3.30315312104530
C          -2.67591227418691   22.14308981606192   -3.02975580946606
C          -3.27767501714496   23.27467539517911   -3.51413940265028
C          -2.83022677975542   24.58392283529706   -3.23828198089210
N          -2.51488075388936   25.67042637627939   -3.04579598099086
C          -4.39171403327183   23.27858532049523   -4.38047277560199
N          -5.28862773828352   23.34957032252785   -5.09279121343910
C          -1.49322917031429   22.09282392913812   -2.18009581391668
C          -1.09255422655308   20.73095999897675   -2.03857864109369
C          -1.97945051589525   19.87574865351278   -2.83296011095865
O          -1.84042484646108   18.69108369051834   -3.06197789571853
C          -0.04542542828591   20.36386870407039   -1.24070301057910
C           0.67235790349930   21.36542803020490   -0.55117687877442
C           0.29741703701339   22.73208408805904   -0.70927477473643
C          -0.80121013323384   23.07952582515504   -1.52958545552926
C           1.03122421932015   23.71979986840921   -0.02228229355150
C           2.08172198019470   23.37523246798779    0.78512346276782
C           2.44326015213535   22.02918590861721    0.94706185229390
C           1.75319271572677   21.04427558451269    0.29319464109021
H          -2.70322260440633   -0.37169634421241   -5.90438564737983
H          -5.81467878693710    3.46424690249683   -6.61494236416526
H          -7.70003004092507    1.93709899693260   -6.56095856810166
H          -8.60083524302797   -0.34492001233008   -6.34697091261127
H          -7.08334333798762   -2.25101539817977   -5.98645500594749
H          -4.65137159198324   -1.89168094341543   -5.83955470107712
H           0.42826074743321    3.76036479529142   -6.86628711455131
H          -1.33842212681348    7.93019001160045   -9.83550339273563
H           0.71758513469540    8.62598450161386   -8.30317742918418
H           2.29020379597417    4.55224924559611   -6.34922201171734
H           4.19384468595202    5.57671822068746   -4.84972802044893
H           0.10236543011286    8.74669094284962   -6.10642366696790
H           2.10607837064546   10.23654404680488   -4.32979671935417
H          -1.87792205529553    9.55036697500408   -6.26307506718020
H          -0.68313606383748   10.42209457945500   -7.23534413523717
H          -3.07133112765414   10.64330631520009   -8.01019417728936
H          -0.10838681475159   14.00054812466626   -8.90873104259540
H          -1.34712117640164   13.74431348749580  -10.15471881874347
H           0.17701749833316   12.80412394542659  -10.21138960673112
H          -4.06117856460655   10.74576210303710   -5.73608529031054
H          -4.57551550169600   12.12418212474313   -6.71789599219839
H          -3.84386998016557   12.65017515480896   -4.31772022726622
H          -3.15246387568891   13.63937153817308   -5.61624825315077
H          -0.75105494401526   14.14113138233699   -1.99562897265300
H          -3.29355117776101   14.59166205807489   -3.64031188821074
H          -2.81820940346924   18.29048996366405    0.22581421989742
H          -5.06684534961079   18.29953872428481   -1.18216053343231
H          -5.33813397301659   13.93420852903360   -2.91232276175060
H          -7.58399233960561   14.15010581300184   -4.29754510830959
H          -6.72777467597222   19.11283606858661   -4.13862259695629
H          -3.79890183412298   18.28305810134895   -3.71238769382762
H          -5.10651035244881   21.06027122218801   -3.87002196518361
H           0.21686628611673   19.32444535271035   -1.11255486696244
H          -1.07667917206697   24.11932009808180   -1.61046822216889
H           0.74788876188424   24.75475272913583   -0.14604664627588
H           2.63809232258278   24.13980080026135    1.30629748483765
H           3.27084200058215   21.77702834263287    1.59279239292954
H           2.01916056516946   20.00499225698877    0.41409457071719
