110
 SCF done       -195.439477287243          0.000403018839
C          -1.64159915182537    7.14515956347808    0.70830449985417
C          -2.07754706654711    6.92840450477777   -0.56913613943759
C          -2.52136660853497    7.95471686982222   -1.42989172267604
N          -2.88204802261930    8.75769739697756   -2.16586421843220
C          -2.21377440624876    5.65059373562260   -1.14695187448971
N          -2.39919134777102    4.63566058515975   -1.65044022649048
C          -1.69129652644083    8.41366453931289    1.42205059101792
C          -1.60864078304963    8.15484162868941    2.82254652805248
C          -1.65708183156128    9.16390459214628    3.74107626566277
C          -1.77976953162155   10.49847939179763    3.29359862940620
C          -1.84635471807271   10.76450895371271    1.89464148632918
C          -1.80209281032960    9.70073991911643    0.96589585477309
C          -1.95834768675133   12.10186480113577    1.46179340263711
C          -2.00474046210930   13.12817222906667    2.36510716286734
C          -1.94060270850518   12.86541357066126    3.74202471114261
C          -1.83148051170360   11.57919586663567    4.19619867597278
C          -1.44888813524170    6.70615737991912    3.04512648592868
O          -1.44329312345974    6.10234463185953    4.08846583643030
C          -1.24754589823508    6.12964340276795    1.67668431070261
C          -0.64043921675059    4.93821529104529    1.52591452137645
C          -0.07877762029547    4.41516180045428    0.29207250121952
C          -0.26807697332387    3.05254846556951   -0.08785444055164
C           0.24501267796047    2.59939738295828   -1.28022703741084
C           0.97096337426175    3.45205938505380   -2.12857450535009
C           1.18278345854613    4.80284727320866   -1.73925064376695
C           0.64657914832018    5.25506041189608   -0.52349282352777
N           1.87357102653346    5.65115550918458   -2.53088557245781
C           2.32823502575056    5.17191290616090   -3.65628556900952
C           2.12022663267440    3.82902400207044   -4.04186003243885
N           1.45900604613585    2.98580360752989   -3.29728476999697
C          -0.99488331255200    2.12264678639470    0.77167612936681
N          -2.02047804673962    1.33221601042899    0.32915365355048
C          -2.70214868446227    1.40232971457162   -0.94459887507722
C          -2.44128284555451    0.16344780311630   -1.79687118511633
C          -2.47665238815044    0.45395867746379    1.34336515921614
O          -3.39800778644489   -0.32140638822423    1.19563556474859
C          -1.62078967893226    0.74396578791278    2.46640451433990
C          -0.73530112643683    1.79212600262487    2.08728310964635
C           0.13264770203140    2.04732858164358    3.21496767929431
O           1.03403429562622    2.84505303465997    3.37628527293135
N          -0.29271717685510    1.14020727998248    4.20749736919888
C           0.37913818285435    1.12473513407052    5.48387881460634
C           1.37547959670192   -0.02758350092961    5.59067654122451
C          -1.32778621330449    0.34943088546420    3.76359177654699
C          -2.02395475394400   -0.72243998219434    4.39888284539879
C          -1.90147413090095   -1.23956976683001    5.63768088290227
C          -2.67750125958941   -2.37929913598075    6.09406373939293
C          -2.91569594714619   -2.55610761307056    7.49565545116841
C          -3.64044379703766   -3.63404495952921    7.94717389971958
C          -4.12927527033222   -4.59762145121817    7.04975115766374
C          -3.85803477673028   -4.45096145021989    5.66015801273567
C          -3.13988537489934   -3.33200615881163    5.21023978618533
N          -4.28307090602082   -5.37919524789242    4.77511354302123
C          -4.95742051693326   -6.38907923626401    5.25092049391784
C          -5.25390526005685   -6.51604902195372    6.62642343096493
N          -4.85018066937063   -5.64244063772367    7.50790150766802
C          -2.49456994814609   -1.51999965748479    8.42560192492268
C          -1.92832456290863   -1.71784025256120    9.63318581457037
C          -1.66229018673244   -0.69166072846166   10.63866679638194
C          -1.54546194904729    0.65203514284203   10.41429173531703
C          -1.28331746596892    1.60038444255864   11.42625238238596
N          -1.07793118678339    2.41165259107787   12.21120051480790
C          -1.59371627430643    1.24105939306750    9.13414219515393
N          -1.58227133423368    1.75418452987873    8.10694531910922
C          -1.45194918394872   -1.37197237712006   11.90724893266516
C          -1.35165873758064   -2.77238671166048   11.66188289440244
C          -1.52978790804343   -3.03578487164843   10.22220611090128
O          -1.33644597188802   -4.07578071295115    9.63865489619575
C          -1.12885094738238   -3.66432671123935   12.67129058319330
C          -1.01432091298350   -3.19013169140283   13.99701781767235
C          -1.12646180245361   -1.79173514357611   14.25135322525600
C          -1.34250913307985   -0.88978869399666   13.18578462789768
C          -1.01682736270137   -1.33214052803873   15.58008979838781
C          -0.80637517423868   -2.20915409158290   16.60869521442869
C          -0.69525651768448   -3.58523957438264   16.35716680259476
C          -0.79656249798047   -4.06506993516668   15.07963045651454
H          -1.59830531476230    8.94680106772712    4.79719175499348
H          -1.84201621366415    9.92893371117629   -0.08789859285200
H          -2.01015939717586   12.29831647044606    0.40096600862639
H          -2.09105132814454   14.14889667409157    2.02397142136382
H          -1.97733165492134   13.68774131178770    4.44073695840470
H          -1.78136019358283   11.37118849371604    5.25492097959195
H          -0.47507605736095    4.36373993125992    2.42814889769318
H           0.12588237782488    1.57191653966864   -1.58390074689949
H           0.83132474713629    6.28040913840992   -0.23902567916965
H           2.87682011137609    5.85698761375300   -4.28862385817148
H           2.50604910220747    3.45074957796916   -4.97895359187601
H          -2.39363875315000    2.31215620495267   -1.46045695073523
H          -3.77502761660555    1.46043069515997   -0.73363112450992
H          -1.38264428333629    0.04598695524603   -2.01549667232552
H          -2.98050738964278    0.25175369246320   -2.73562785769665
H          -2.79060580218536   -0.72317708985359   -1.27408711782172
H          -0.35786228167640    1.10523681865060    6.28978707073738
H           0.92039260485455    2.07408201184404    5.54252454647267
H           0.88875165002670   -0.98967629420016    5.44545997213181
H           1.84638962105321   -0.01649153402075    6.57008262290375
H           2.14875548603544    0.08275320283313    4.83389649326138
H          -2.76776311102166   -1.14801348848025    3.73613913168011
H          -1.22024607469938   -0.81476764172447    6.35785131951207
H          -3.87453441183552   -3.75469313831822    8.99308116719624
H          -2.94130771621748   -3.25999285672400    4.15277871231864
H          -5.28838275831345   -7.13166185752181    4.53711847319530
H          -5.83248018881890   -7.35062432252854    6.99935226008123
H          -2.71712858630009   -0.50720292502915    8.11169379550146
H          -1.04910697922139   -4.72053162158478   12.46099112943146
H          -1.42712302117450    0.16266220141616   13.40705937247430
H          -1.10124567565362   -0.27191166016960   15.76822548982984
H          -0.72420366808868   -1.84768209827852   17.62268564296811
H          -0.52941425722920   -4.26291034107723   17.18114979770905
H          -0.71189601150623   -5.12323060661035   14.88011896875204
