124
 SCF done       -231.438282242120          0.000623831562
C          -3.42445706666804    7.01870883534524    5.47985584745373
C          -3.51025644411481    6.36102970252568    6.67624962428234
C          -3.98795517210495    6.95309890643546    7.86548431682355
N          -4.35887956083070    7.39747517993407    8.85548750019857
C          -3.20276357757518    4.99299227649535    6.82669556920012
N          -2.99538047646622    3.87199438599341    6.96497077697089
C          -3.87739851057121    8.36753112437209    5.18549802485484
C          -3.92516992642906    8.53432272797220    3.76855707145341
C          -4.33738377106612    9.70507250244362    3.20020803243045
C          -4.71238698764065   10.78224093998381    4.03431535794490
C          -4.66055082575442   10.62345908107527    5.45107731174777
C          -4.23920125510200    9.39859615028823    6.01373425869065
C          -5.03946606720693   11.70661211884486    6.27104768243573
C          -5.44987740767843   12.89001865484252    5.72080602133603
C          -5.49997280486958   13.04558878111995    4.32692504390684
C          -5.13971557357197   12.01461082224924    3.50195926835219
C          -3.50564338869655    7.28350815218601    3.10779079984185
O          -3.65877301799117    6.96425581607247    1.95823463219856
C          -2.95096301120374    6.44472124394742    4.22508545133677
C          -2.08994528120884    5.41537640489307    4.10449997562492
C          -1.52478540288077    4.92234289723353    2.88181479897192
N          -1.13306955976423    5.69085723922337    1.89404692194540
C          -0.62925194775362    4.85589698595874    0.95244715263287
C          -0.69146217479658    3.45821150979616    1.39193351044662
C          -0.19527060803317    2.56014712709585    0.33177901758675
O          -0.15343858563611    1.35213194714182    0.32733401128601
C           0.20315572611422    3.50858934198743   -0.72836220929782
C          -0.08051592810425    4.90007985729621   -0.30482465014439
N           0.27618541385333    5.77628251459338   -1.27590107201746
C           0.74443287061881    5.03744982280159   -2.24938416113967
C           0.72590495530799    3.60948077845782   -1.97435655125757
C          -1.25089104785081    3.47969804791383    2.64904416728353
C          -1.54774573590497    2.44416286281330    3.57213111020023
C          -1.08647123033368    1.17248483877936    3.41525179451490
C          -1.28013279600074    0.05132883461478    4.25438998816231
N          -2.15990243583792   -0.15011505065060    5.28827098710326
C          -3.21644817718062    0.71149466770319    5.77099522046174
C          -4.34198082312166    0.86540276744508    4.75269438869103
C          -2.02651416152765   -1.44269913426495    5.83725678110446
O          -2.70849649550757   -1.85276071052501    6.75467569891894
C          -0.95735125717177   -2.06035395441595    5.07950076615365
C          -0.52741112678229   -1.12948003131208    4.12650591526130
C           0.57493938343981   -1.71307632346967    3.37667350856434
O           1.28378966720735   -1.27862775811091    2.50230529641943
N           0.69792287647218   -3.01019098342832    3.91821457957115
C           1.72576743622063   -3.91579850471800    3.45848120008362
C           2.91395155874074   -3.95729412244101    4.41486882668451
C          -0.19227268431727   -3.23936633061477    4.93389678837945
C          -0.28059899720914   -4.45732129809884    5.62398000976374
C          -1.17370207215070   -4.65715104200100    6.64764099216775
C          -1.34814677135695   -5.81434400748878    7.42515750789135
C          -0.57834070232491   -6.97347573581191    7.63334744446003
N           0.61012555221642   -7.41489680981868    7.03588975141009
O           1.29153717585552   -8.20202487790864    7.67546162997243
O           0.92112682794582   -7.02310642453180    5.91973298291615
C          -1.12668892578195   -7.70914896953546    8.72966244980418
C          -2.18653516878059   -7.02709081332243    9.24391204327616
C          -2.38553428725293   -5.84227906340246    8.47101858362207
C          -3.41085834076205   -4.92317327678390    8.65491601405506
C          -4.18620696652131   -4.26175206406902    7.66493549657917
C          -5.26200630603320   -3.67201552961394    8.27165968051001
C          -5.16389097703929   -3.86485745920117    9.68361452264074
N          -6.07251869794155   -3.31771967784489   10.60659433981191
O          -7.01261091111954   -2.68447555994234   10.15975353030708
O          -5.88399196196944   -3.52038200149256   11.79507521392572
C          -4.01572214549300   -4.60456807301946    9.96324998499513
C          -3.38955469756765   -4.84944864449365   11.20139874840097
C          -2.04168500072004   -5.06865606795552   11.29651070739201
C          -1.38330335652713   -5.55011035810460   12.44625274010674
C          -0.09856809299195   -6.01977658286974   12.40080056397850
C           0.63091820756517   -6.67524933848192   13.47012577677602
C           0.34173200715810   -6.61159481076026   14.80849443096430
C           1.10021814999542   -7.25290735618247   15.80996546666087
N           1.67534302487055   -7.75242715943782   16.66865075038017
C          -0.72167896390161   -5.87160131101557   15.36736577885583
N          -1.55921555890473   -5.28567880333631   15.88964320797762
C           1.75270463915175   -7.38697691987774   12.86965475282713
C           1.78757214642831   -7.08624259117410   11.47634473744171
C           0.71605737071414   -6.13695871063520   11.15432771711161
O           0.54660790994651   -5.56440593363724   10.09611933835051
C           2.69898863687887   -7.65854436977238   10.63494781864315
C           3.64710615180112   -8.56109037534224   11.16469850988187
C           3.63818522114594   -8.84634596828565   12.56125233741311
C           2.67162234092840   -8.25015341007940   13.40451944984763
C           4.59814120390292   -9.74054014246935   13.07629142553566
C           5.51980567514682  -10.32810973791561   12.25226441172991
C           5.52119421460168  -10.05335951815563   10.87639957094821
C           4.60412343347685   -9.18833060933851   10.34332137127574
H          -4.37119229133578    9.81007514182702    2.12620458518117
H          -4.20271103673763    9.30488220964273    7.08808495710752
H          -5.00099395955132   11.58118674938657    7.34304186787653
H          -5.73831106467644   13.71346173058541    6.35646771582184
H          -5.82548454149475   13.98684688599695    3.91037619241556
H          -5.17691921344148   12.12896863679684    2.42872473367246
H          -1.75771450799129    4.89907026730079    4.99705236827121
H           1.10585039457200    5.49498566416103   -3.15398052766080
H           1.06476502372940    2.84199567051988   -2.64152373724654
H          -2.12752765632366    2.72566530965531    4.43827935296580
H          -0.45279815460406    0.95775195140946    2.56148607638133
H          -2.81218109751449    1.68043464534838    6.06906662131311
H          -3.60431282745264    0.22055393354430    6.66852198069385
H          -3.98190038790723    1.29350441294226    3.81995883941853
H          -5.10942743103278    1.51622024867152    5.16178362937050
H          -4.78730480589229   -0.10308352630606    4.53706093955831
H           2.04758318786037   -3.53572100799608    2.48517557387710
H           1.30277492653131   -4.91503491979642    3.33040779067501
H           3.33599086657727   -2.96203175084049    4.53289960388893
H           3.67910092311031   -4.61512642661229    4.01356088836662
H           2.61472635769336   -4.33056670395472    5.39095262693155
H           0.37307824074338   -5.25855082291128    5.31730334380270
H          -1.82523792604901   -3.83291307015320    6.90739949531708
H          -0.73137563209730   -8.65000162977173    9.06447873638452
H          -2.83188905372757   -7.35277512407017   10.03672358746308
H          -4.02542629432487   -4.33694494514718    6.60742502563152
H          -6.06484799218840   -3.13931875580752    7.79823308907505
H          -4.00656829327380   -4.81628835741529   12.09150839795383
H          -1.42443803150972   -4.89833648238730   10.42672595969919
H          -1.95747592911385   -5.64392615841475   13.35966758426197
H           2.68246966781122   -7.44994311287202    9.57608937842166
H           2.67567159555606   -8.50368502029828   14.45290632193313
H           4.59167416234240   -9.95275298810161   14.13541210572376
H           6.25152315117437  -11.01125689792472   12.65700556215000
H           6.25219118555820  -10.53117042191693   10.24151049959042
H           4.59282988434406   -8.97380687237323    9.28529068773283
