101
 SCF done       -188.043222012901          0.000811671063
C           4.08051132686263    3.35969810400816    1.08501521527904
C           4.92431890854856    2.63707763571441    0.28445627124279
C           6.14067646814389    2.06904900669700    0.72100987855234
N           7.14105638845540    1.57928141240365    0.99884998407936
C           4.77224538116943    2.45061838868106   -1.10485010115896
N           4.76601668372350    2.30267004237903   -2.24447272868501
C           4.34935813130207    3.76960476278311    2.45392305293161
C           3.38538593336377    4.74672605285494    2.83805215192496
C           3.43613635580213    5.36052734816909    4.05604897896460
C           4.46172266345487    5.01244972583597    4.96417177332989
C           5.42027104037648    4.02578168644318    4.59119178023902
C           5.34848795811994    3.41098662180297    3.32177914405915
C           6.43996443807142    3.68732989146341    5.50465827231122
C           6.51317647968582    4.29521724948844    6.72793129385634
C           5.57011344167804    5.26752943714292    7.09417442474702
C           4.56656500160567    5.61774669055146    6.23189600172922
C           2.42817635494461    4.95897851623527    1.73809348621536
O           1.52657805219641    5.76000790027851    1.69075858251649
C           2.83565382787752    3.99006552710120    0.67448244758407
C           2.19307007978006    3.81118462995340   -0.49815250246760
C           1.00724840000093    4.53055529281267   -0.89045641449316
C           0.94205202439872    5.17862125250583   -2.12372151222518
N          -0.16104177979221    5.80364068487540   -2.60559683969229
C          -1.24493431003164    5.89699367849688   -1.90599614526400
C          -1.32255839391570    5.30204624145132   -0.62390681541091
C          -0.17836868216014    4.58377969919233   -0.12109822618771
N          -0.53580807320224    4.03576866710002    1.02653154608878
O          -1.79287671888392    4.40549260775019    1.22971676464934
N          -2.29093910304390    5.16116360533065    0.26121989847948
C           2.14010430680536    5.20898347021035   -2.94545159936707
N           2.14751822516030    4.99201595708054   -4.28899106026491
C           1.00421853744739    4.80875917509866   -5.14980543091353
C           0.49359461555099    6.14375786352699   -5.68236779000384
C           3.46814074299107    4.93205352904305   -4.80735758118720
O           3.71480706070506    4.72545040751261   -5.97111106640986
C           4.30217681801622    5.18599607641969   -3.65353084184780
C           3.45550186137348    5.36709910898133   -2.52071297663629
C           4.30647243453913    5.71818710356045   -1.40342063751651
O           4.07307464932432    6.04700646528570   -0.25556535697912
N           5.61591099139898    5.62566554226678   -1.90965553174772
C           6.72083364837025    6.16490222942797   -1.14459149981366
C           7.16253627432102    5.25369391950740   -0.00386837656530
C           5.62013474971065    5.29455215790805   -3.24653320077600
C           6.79036672601206    5.02865627191910   -4.02260977225469
C           7.89839798690014    4.45438360829525   -3.51008262546280
C           9.08489620292840    4.18314112929530   -4.24871778601853
S          10.34861191687902    3.16545223409314   -3.57118967933922
C          11.24659408099437    3.53639275336210   -5.04214718520614
N          10.57929469831665    4.31588989975069   -5.84563475472064
N           9.40357368403549    4.66342079811771   -5.41785631586449
C          12.55701532050639    3.02631205867210   -5.24443277054052
C          13.39827758368230    3.44707346653513   -6.21950202863511
C          14.70644940781483    2.90425212236054   -6.31438109037512
C          15.68864096387822    3.33709581661485   -7.15177057822029
C          17.03947887812076    2.80649222063058   -7.24738799538348
C          17.52916769772724    1.68772355734482   -6.62571640181018
C          18.85281195314406    1.21841197439956   -6.76727360954157
N          19.91247536902076    0.78197275459846   -6.83397072294622
C          16.80230587804193    0.83201083794846   -5.77101887151739
N          16.28777803151340    0.08446868369514   -5.06710462557631
C          17.79088714527152    3.66797607093125   -8.15175031450107
C          16.92068391123967    4.67871801909893   -8.65192785232833
C          15.57672134659059    4.50328478059236   -8.07462405641185
O          14.59669425566965    5.17938748342679   -8.29507413526020
C          17.35447350232975    5.63859378283978   -9.52061771275800
C          18.70511148194928    5.63450084558307   -9.93482110332608
C          19.58260679435517    4.62746456656417   -9.43810098416593
C          19.10455456801289    3.64505440443404   -8.54200848995815
C          20.92977892818593    4.63397819652609   -9.85426333613863
C          21.39026029352984    5.58928928026413  -10.71860799757427
C          20.52580562724075    6.58094466756077  -11.20648861646846
C          19.21202959802027    6.60285034314213  -10.82359790586836
H           2.70313471177450    6.10697362119349    4.32297831177777
H           6.08720081662999    2.66750775461492    3.06573151176942
H           7.16433770105299    2.93973868430234    5.21618865079195
H           7.29860221254097    4.03115625168734    7.42008265107293
H           5.64339450181876    5.73771126121232    8.06335777726845
H           3.83850163052886    6.36573775120253    6.50936147552372
H           2.61159086507225    3.15406537609008   -1.25001010160123
H          -2.08435645868217    6.41779425375173   -2.34186368024481
H           0.21648513689853    4.29546040514161   -4.59466095298198
H           1.33930204005079    4.18100824667080   -5.98018899607121
H           0.17103460257265    6.77234107507307   -4.85696135853393
H          -0.34691524134658    5.97400042409331   -6.34890842317026
H           1.28148613114894    6.64887865134152   -6.23520803532487
H           6.37956274693994    7.11229571489733   -0.71261355090818
H           7.54681872348981    6.36584486885425   -1.82909558672955
H           6.36217945764882    5.16367692653567    0.72584490236018
H           8.02955678946927    5.68500440008599    0.48911640767570
H           7.42632170281268    4.26031192585432   -0.36012490469617
H           6.72462596083011    5.22756518927994   -5.08276710279687
H           7.91698113581467    4.12361569146977   -2.48200689035075
H          12.88567398970081    2.27791847102924   -4.53395240541614
H          13.08779240679203    4.21411485175721   -6.91290327127467
H          14.92832591785302    2.09227319196270   -5.63260148014447
H          16.67446450735081    6.39457649451402   -9.88435527246246
H          19.79540179847530    2.89968707440911   -8.18161595643124
H          21.59074798897243    3.86805985502386   -9.47581904038230
H          22.42366110658993    5.58633175240330  -11.03132658588510
H          20.90654275461829    7.32764271172357  -11.88713414929413
H          18.54231733635604    7.36415913075945  -11.19590133766740
