92
 SCF done       -178.156795510218          0.000497995079
C          -3.03656684720192    6.64057140859351    1.14251574919631
C          -3.31445678735312    6.79827793845602   -0.18767250361619
C          -3.37489831689546    8.04233849250971   -0.84777139079776
N          -3.37680599658662    9.01226303634027   -1.46139691966284
C          -3.56476291514304    5.71148502815279   -1.05079876336612
N          -3.76671450074962    4.83795165914830   -1.76739934534254
C          -2.98790372127055    7.69753157473023    2.13723999615657
C          -3.20808155540424    7.11695886008177    3.42377840391826
C          -3.26246278572722    7.88927269448221    4.54951249653821
C          -3.07152140970015    9.28545212806674    4.43833854396540
C          -2.81059673061507    9.86157031024861    3.15922737299104
C          -2.78104370136030    9.04487375584576    2.00696500179437
C          -2.58932166152531   11.25054321114459    3.06669391506858
C          -2.63960353941244   12.03929773736687    4.18406083891934
C          -2.91058088518892   11.47583730253831    5.44034048022527
C          -3.11963535835283   10.12866747535920    5.56591355124219
C          -3.32062659513363    5.65378594601436    3.29371705987344
O          -3.56976116966657    4.83446437496814    4.14173367849710
C          -2.96322341219361    5.37629721761533    1.86042981653094
C          -2.46905300692208    4.17568166570958    1.48294902506025
C          -1.72153846897690    3.94864161260197    0.26914665363739
C          -1.60659224528730    2.76123220667801   -0.37708629087009
C          -0.93165223326879    2.69420755855786   -1.64064783964370
C          -0.75707265653274    1.49941797431093   -2.31265966653166
C          -0.10850230255172    1.44039161724333   -3.55827918739387
N           0.42438058387873    1.39979159451650   -4.57462190675988
C          -1.20033540820445    0.27542065580108   -1.78274356478874
N          -1.55644336530845   -0.72446152562572   -1.34505410428925
C          -0.48612041877695    3.94320980393063   -2.18543467358479
C          -0.60599291198794    5.07876965735873   -1.45600266852724
O          -1.12410828556577    5.07494406342433   -0.19972918558201
C          -0.28751271660300    6.41764400817309   -1.87978778369891
S          -0.06159662535783    6.86154988105525   -3.53758288051606
C           0.06084700849493    8.54509435296535   -3.12551732610446
C          -0.06672851070725    8.72506777670988   -1.74900411410333
C          -0.26135764197058    7.51808068470794   -1.05594974837556
C          -0.10099443666071    9.95050463868911   -1.06161290362723
N          -0.16640645632962   10.90235852909910   -0.42481652604813
C           0.24826399590328    9.50062640813533   -4.15809612816011
C           0.53293964558348   10.81202801722394   -3.97157238720317
C           0.67713546606349   11.71351073965846   -5.05962776422141
O           0.41386711917132   11.32171086672529   -6.32134381405714
C           0.62322107004757   12.36359605254198   -7.15298614133901
C           1.04715573737602   13.47052998066512   -6.41514906059675
C           1.07660446932696   13.05060011485480   -5.05750855547615
C           1.44512315541045   13.81367915388489   -3.94054203198065
N           1.75307655890865   14.43608609080700   -3.02927561655061
C           1.36958103117250   14.73810193617148   -6.91930866597899
N           1.63302884240386   15.77266280206573   -7.33565753993399
C           0.37792582405571   12.23568903805343   -8.54439936901479
C          -0.12124528084763   11.09340831268737   -9.08218206943334
C          -0.41647608280894   10.95725469566230  -10.46054703777381
C          -0.97846909509456    9.84328131105724  -11.01028929464323
C          -1.34815788690211    9.64657277038205  -12.40335551363958
C          -1.03426632497692   10.46367289555120  -13.45712789304068
C          -1.41363637717254   10.21067501068501  -14.79316568991688
N          -1.69148398828763   10.06574867843949  -15.89718243059433
C          -0.27400963466657   11.64986944051607  -13.37726727741519
N           0.34352307059970   12.61761797044345  -13.39523653913769
C          -2.08766901315689    8.39350863064432  -12.49361437962081
C          -2.10917071306128    7.78132367294715  -11.20734977857273
C          -1.39817837022778    8.63314136614509  -10.24385144134954
O          -1.20489822813664    8.39504480140151   -9.06992655815001
C          -2.73134792556164    6.58579107588585  -10.98566608952463
C          -3.38091988744434    5.93814981835514  -12.05925638865971
C          -3.37155134868830    6.54726896392543  -13.34799559422741
C          -2.71392090874759    7.78235071235693  -13.54838742473386
C          -4.02944559127104    5.89578676045246  -14.41120892947163
C          -4.66576699785378    4.70065271884487  -14.21280118588699
C          -4.67312366896217    4.10155405711342  -12.94403546904566
C          -4.04395032346426    4.70670634789290  -11.89000355417145
H          -3.44410938823948    7.44092687845501    5.51492581962627
H          -2.57616859783895    9.50245748991565    1.05069192355904
H          -2.37782479403854   11.67599252414073    2.09712173080419
H          -2.47024082759787   13.10234020048905    4.10538305251990
H          -2.94886368256886   12.11391712882040    6.31032865429275
H          -3.32261102148435    9.69028465618153    6.53189838439150
H          -2.58268618344417    3.34258999693962    2.16343854455638
H          -2.06937513543099    1.87545177047113    0.02715238949488
H          -0.06913348260577    3.97611203965542   -3.17922266317350
H          -0.37138282558778    7.46231644135707    0.01274874047216
H           0.16209376695362    9.12349662320105   -5.16879168965503
H           0.67094851115670   11.23261564979294   -2.98654981568331
H           0.59113377857431   13.10392248174322   -9.15302941811585
H          -0.32403921782480   10.25032412318950   -8.43750577706009
H          -0.19903897625536   11.81100063438361  -11.08943139928388
H          -2.73035220177333    6.14227695542412  -10.00102656547842
H          -2.72827003014298    8.21718689718217  -14.53502852295421
H          -4.02033845969195    6.36002358509930  -15.38637824627141
H          -5.16732239115398    4.20985386190477  -15.03321559330928
H          -5.17994655176188    3.15834977653833  -12.80597426886951
H          -4.04610263990671    4.25046216509654  -10.91104095646732
