102
 SCF done       -197.638726896229          0.000499017511
C           3.64628206434885    3.07286091388163   -0.89647821236313
C           3.31377000964351    3.58702167382880    0.32735324744303
C           4.26352460222742    4.02322180882372    1.27339249033357
N           5.00790016289679    4.39134464502050    2.06507968514833
C           1.98530565643972    3.61630813775931    0.80602784031891
N           0.92088684133700    3.57538950536953    1.23165748037472
C           4.98733502052185    2.72486708002450   -1.35097774980941
C           4.87377525566855    1.76990084093593   -2.40578916942805
C           5.97706290425365    1.23335628200943   -3.00644158001217
C           7.26073949670627    1.64317164918503   -2.58178334432756
C           7.37891608638813    2.60925537218865   -1.53993999518263
C           6.22013150806744    3.14175169908427   -0.92872535316001
C           8.66601451210408    3.01606354153271   -1.13440614447190
C           9.78413411535283    2.49408540485630   -1.72611399401597
C           9.66717858593766    1.54203158531804   -2.75002825067448
C           8.43264773567615    1.12505191586220   -3.16813453364705
C           3.45139545993732    1.52275092937181   -2.69739918993527
O           2.96610375280274    0.73835251366898   -3.47548869190374
C           2.71506587097724    2.52479146619350   -1.86165296567579
C           1.44225479697416    2.88485976220551   -2.17798803986085
C           0.78832259716452    4.07939001125289   -1.80127019814525
C          -0.53509029403329    4.44419762080768   -1.94042453091026
C          -0.67337687079237    5.76810922313665   -1.44151015995451
C           0.65581467607252    6.23242067347524   -1.08126417643536
O           1.08770763012722    7.29875258617753   -0.75624139369729
O           1.48990947917132    5.13387476142410   -1.29086229667618
C          -1.99217544221269    6.14140355888896   -1.61458348742905
O          -2.67357136543303    5.12838871885786   -2.22900058694850
C          -1.83781494803088    4.02996373532466   -2.43744920669785
O          -2.23209457250268    3.02619919058717   -2.95172262273885
C          -2.60073756589756    7.35658516623406   -1.24199329818288
N          -3.71699950172621    7.92949448555756   -1.79720143785825
C          -4.56701985792888    7.35963599583712   -2.81647391123613
C          -5.59809453614475    6.40852258486721   -2.21682813631263
C          -3.96892649931272    9.20610766150810   -1.25408083599664
O          -4.87136461885385    9.92841456898385   -1.61569529263242
C          -2.93250746349330    9.37264836975687   -0.25466669657721
C          -2.11461291308057    8.22882851392567   -0.26488397250301
C          -1.17715549792413    8.34611135479668    0.83649828528997
O          -0.37702118565738    7.58131078145476    1.31267388144264
N          -1.44657305747109    9.63135662610910    1.38553518130467
C          -0.61159374849961   10.11872266269434    2.45648402164198
C           0.45363508035138   11.08292857932934    1.94066150035718
C          -2.48937473105473   10.24452365162465    0.74902558594093
C          -3.10723109537803   11.50250174620863    0.97189264055117
C          -2.80976001078878   12.47210452685673    1.87143701537117
C          -3.54104453522723   13.69059585217809    1.96146581631982
S          -3.23868240923543   14.76938082993633    3.29446230889256
C          -4.42661356009387   15.88862635000251    2.72404969289916
C          -4.79743191049110   17.11743800359698    3.43700463054012
O          -5.74063624952487   17.78546620979042    3.10043150217010
O          -4.03727553016469   17.46688191802638    4.48536142957975
C          -5.03013195497253   15.43704324301699    1.55566153352227
C          -4.51687225364187   14.19793689574638    1.13351511184417
C          -6.02874438256974   16.20225654514248    0.84335413170998
C          -7.16525039208913   15.68528268684971    0.33352246148396
C          -8.17987209695889   16.40385426878041   -0.43109221731056
C          -8.01957015329975   17.62181261896524   -1.02938191234253
C          -9.02834523701423   18.27643651871076   -1.76939450453785
N          -9.81048469526649   18.85494512099745   -2.37794069105395
C          -6.81674397144607   18.36256226130249   -1.03913159913169
N          -5.86360666739551   18.99538932017439   -1.12918768912250
C          -9.35429073909220   15.54907340596784   -0.51628880358165
C          -9.05978383082137   14.29895093005469    0.10225226666390
C          -7.69060870985001   14.31706820825950    0.63566558665537
O          -7.12560194216908   13.42919949829104    1.23453727212153
C          -9.97144145072612   13.28219821414947    0.14409802218663
C         -11.24257541922398   13.47219543607245   -0.44034294464624
C         -11.54982728343456   14.72387783842284   -1.04983248321695
C         -10.58769350718658   15.75818092613603   -1.07728721999886
C         -12.82362596661835   14.90298874894260   -1.62752143876054
C         -13.74847694477746   13.89487237931258   -1.60863473084640
C         -13.44404497470037   12.66244922511554   -1.01055692676015
C         -12.21824653981244   12.45563174178406   -0.43857210637475
H           5.87198637991594    0.50667181263921   -3.79827733818178
H           6.33378604570877    3.87832395143706   -0.14849472704920
H           8.75123509069856    3.74703805725901   -0.34394201975461
H          10.76563106242192    2.81203963377938   -1.40800275247044
H          10.55994951767891    1.14124032802638   -3.20604622470737
H           8.33627534529559    0.39252003440170   -3.95601922333700
H           0.89187556332425    2.24086822471141   -2.85379993068429
H          -3.95116305382273    6.83747316619749   -3.55145756940584
H          -5.07261165305400    8.20197961938267   -3.29672600044197
H          -5.10659085864028    5.56215121579903   -1.74478635794607
H          -6.24992291614115    6.03663716770123   -3.00187517213987
H          -6.20181231928272    6.92921292912554   -1.47728202037511
H          -0.12189504428966    9.23380717653445    2.87428623000886
H          -1.23208910601824   10.57077133827545    3.23376200999044
H           1.09859405687653   10.56537382225844    1.23505723301151
H           1.06021129196347   11.43959696030547    2.76844327530392
H           0.00559769674868   11.93657439942707    1.43650321823835
H          -3.94343484326073   11.66427966783029    0.30432616573861
H          -2.00474801794144   12.36369091596180    2.58145045144960
H          -3.30690127720441   16.85686843134773    4.65603147017616
H          -4.83549002715483   13.70898603411115    0.23255434313467
H          -5.83500722264767   17.26412968521343    0.76851092446234
H          -9.72110144949100   12.34237661984597    0.61339253875450
H         -10.85078888224400   16.69504225911042   -1.54224296494949
H         -13.05263794172216   15.85255246199359   -2.08835535685709
H         -14.72037159953735   14.04096659481495   -2.05540239705759
H         -14.18594138939203   11.87806749857076   -1.00569798693603
H         -11.97795926483440   11.50919071432759    0.02310428262309
