124
 SCF done       -231.743924466963          0.000587329734
C          -1.72920388739153    7.14209098950007   10.45726326555690
C          -1.74075761390616    8.46408959506436   10.10675455846792
C          -1.44088464748615    9.52372565161632   10.99137490751524
N          -1.25310186684945   10.42858016158516   11.67030807478167
C          -1.91984337387991    8.91731095355297    8.78830823040615
N          -1.97513009265983    9.30944611842038    7.70986885528892
C          -1.16674630784518    6.61003937587034   11.68924748630698
C          -0.86371467331863    5.22779868930765   11.49994212537376
C          -0.20160463245539    4.49692389284948   12.44552705552066
C           0.16230010753355    5.11930134166452   13.65926376240702
C          -0.17474684053816    6.48799636262685   13.87511030993544
C          -0.83854021576592    7.22530825161293   12.86924134469009
C           0.18682953363411    7.09127900560643   15.09732518703110
C           0.85353802263549    6.38047743063443   16.05794473405392
C           1.19038649661631    5.03545188888452   15.84165897954007
C           0.85286464901903    4.41829776929871   14.66755088216350
C          -1.34425253626556    4.79944166216307   10.18996142815613
O          -1.29721176713232    3.70565957713479    9.67529697533966
C          -2.02330646635323    6.00404653439746    9.59255933642384
C          -2.81072920265853    5.79403275250779    8.52966462500171
C          -3.77794448483611    6.66505805862026    7.80549641644813
C          -5.08582772890386    5.86291503918895    7.72684138423520
O          -5.93074241665889    5.79080832780056    8.56349282816968
O          -5.13458919603127    5.20972137409188    6.55995662960816
C          -4.02489899694946    5.51988346703315    5.72014913855146
C          -3.38569217403408    6.77821277953113    6.32673343214369
C          -3.91267770170016    8.02644678884509    5.63089494631227
C          -3.40618437445765    8.02152003644913    4.19150978335397
C          -3.86223631647322    6.78269781605839    3.41652202805915
C          -4.53854227663653    5.69120303928385    4.27918397087236
O          -4.34527832162280    4.47263980680813    3.57448452004507
C          -3.38770810069979    4.55370051124721    2.65941612897461
O          -2.97177741435786    3.61562311226229    2.04990797430637
C          -2.85066255222536    6.00851557519266    2.54891123936429
C          -1.36797173315468    5.81498302567951    2.69577063855800
C          -0.72374715625499    5.11689685769220    1.68374785008545
N          -1.08366980384089    4.97449835860150    0.32284254709945
O          -0.43948345675307    4.18567943874136   -0.33449051110049
O          -1.97292373046320    5.67652636063067   -0.12932127535039
C           0.47002132904624    4.48393057131240    2.19676253941314
C           0.52683564581588    4.70245732798432    3.52705204423792
C          -0.52239950789278    5.64792806984571    3.87349185875130
C          -0.33265712879902    6.41778274911740    5.01368350285131
C          -0.24198801129391    7.83641576555858    5.09000572582606
C           0.27208863176697    8.18395718119366    6.30981202932891
C           0.43430053065179    7.00611778310278    7.09666986560571
N           0.79922186149539    7.04224502637923    8.44427484981395
O           0.88410172093636    5.99031671036071    9.06768956424185
O           0.98461572495780    8.13806172961910    8.95160560563015
C           0.08689994454385    5.88387807618147    6.32748547611153
C          -0.06250122473584    4.56122882117833    6.76551006397821
C          -0.70683964848923    3.56542612088401    6.07169809281352
C          -0.83602107375138    2.23505198101539    6.50532562114657
C          -0.45445574477447    1.65087729476722    7.70812502947528
C          -0.87145026665255    0.29456590987715    7.71226312421706
C          -1.49600181677475    0.04548785470894    6.39482971537712
C          -1.48598393600850    1.20882501203808    5.69798015727591
C          -2.01591508151027   -1.16765909650408    5.92576753023114
N          -2.44304580741246   -2.15050069185013    5.51406242253816
C          -0.79098712142547   -0.60819867636564    8.75194049163226
C          -1.25786679587857   -1.94959678644939    8.76519620000468
C          -1.07516902893468   -2.48826237779299   10.02478070276160
C          -0.44653008987507   -1.46464931690674   10.85667858484802
C          -0.26080331907068   -0.34854034980052   10.10840920425497
C           0.34141439566793    0.81879773253052   10.59358058902990
N           0.86376954069053    1.72584933971403   11.06546518936937
C          -1.44944511829650   -3.78871113116538   10.42946885819640
C          -1.36209928364958   -4.25645408172805   11.70835988390523
C          -1.77734485888088   -5.56119627816491   12.05305465869133
C          -1.78057185273811   -6.06086827417091   13.32564018539680
C          -2.20324014427002   -7.38622299606753   13.74136809345931
C          -2.52819400617881   -8.43814958384633   12.92370404359516
C          -2.91973309340160   -9.71084954194102   13.39199033460524
N          -3.24517836385044  -10.76617318807811   13.70417468993175
C          -2.49919294272134   -8.42233768884875   11.51309023135997
N          -2.49136292535901   -8.49147913851746   10.36702389239727
C          -2.18797521004506   -7.42139651784668   15.19912493495028
C          -1.70634477143741   -6.17023795848744   15.68143589438529
C          -1.40843002881928   -5.28651726991123   14.54525751995101
O          -0.96138205143475   -4.15990810558423   14.59757280628380
C          -1.58214746553641   -5.90981813877775   17.01643621199394
C          -1.94468001466399   -6.90618890216225   17.94938302199938
C          -2.43034090344934   -8.15980192726813   17.47568789620649
C          -2.54546413961382   -8.40146245178085   16.08744664192054
C          -2.79282305034032   -9.14632275346802   18.41515391240753
C          -2.68283979833678   -8.90743582492520   19.75819390587669
C          -2.20549039071584   -7.67282086627857   20.22333351656951
C          -1.84361298166083   -6.69350104766156   19.33832250442013
H           0.05827433352916    3.46593314391930   12.25427689949615
H          -1.07150429249542    8.26199724207003   13.05565212694174
H          -0.06761156299936    8.12877233623958   15.25709969313461
H           1.12804273712347    6.85220800053588   16.98965537236641
H           1.71932838684576    4.49205526424008   16.61040495737396
H           1.11035588949779    3.38464593543095   14.49047514966622
H          -2.76911449572128    4.77357089178209    8.15362141821217
H          -3.93941626317472    7.62363931990751    8.29421647433533
H          -3.33844390446268    4.66266048470654    5.74534412257115
H          -2.30276379327749    6.75090501982854    6.21616588559923
H          -3.53059447673328    8.91029667866438    6.14054040369465
H          -5.00371361744000    8.04836101015761    5.66405549609626
H          -2.32290249490204    8.06158218480275    4.21475933622827
H          -3.75800691143743    8.91712863130256    3.68037803669389
H          -4.63785002766932    7.10032453771430    2.71137336104593
H          -5.61970348082576    5.84976216345192    4.34462638429616
H          -2.98700309211800    6.30049739432574    1.50074463451492
H           1.16053558190612    3.93506376027159    1.58637312957174
H           1.31484376537375    4.42481228400529    4.19969439666872
H          -0.36711148857967    8.50123103189457    4.25672535617090
H           0.53220972728676    9.17005346728183    6.64323085577636
H           0.31734691218967    4.33743006945022    7.75371656110362
H          -1.17634647253670    3.79631858803772    5.12200155955847
H           0.01173965147956    2.14785250600336    8.53551805263918
H          -1.87510388302527    1.36777980394548    4.70843022438574
H          -1.69943532439539   -2.45616565484253    7.92970708680821
H          -0.17082764612398   -1.58717590821512   11.88711642198265
H          -1.84968641254497   -4.43532730710666    9.65729430959355
H          -0.98494092018930   -3.62554747635001   12.49884622682008
H          -2.12987355214563   -6.18617182872909   11.24223223516106
H          -1.21462570925588   -4.95261922490897   17.35548292786704
H          -2.91937347639685   -9.35938962933366   15.76310320780406
H          -3.15971831702300  -10.09520956136277   18.05249024479008
H          -2.96377555138456   -9.66897076920642   20.46990577758388
H          -2.12624012512021   -7.50151731990386   21.28632293766026
H          -1.47561677000374   -5.74102494302860   19.69050752298238
