110
 SCF done       -206.095187468691          0.000856806402
C           1.31503812099165    5.32064743550549    4.77858312709174
C           0.27921993550687    6.16674821255290    5.06712480281642
C           0.43680256860261    7.41915764982074    5.69631394118173
N           0.50160905205679    8.46100430232957    6.17339962716258
C          -1.08137892423303    5.87832368625006    4.83284319297847
N          -2.20889371933583    5.70417379425010    4.70426222306555
C           2.68490423040172    5.47980974083431    5.24942253189340
C           3.34320554860978    4.21636106397417    5.17765586299782
C           4.62844066775384    4.05246389481322    5.60910368779809
C           5.32721476810293    5.16308057273467    6.13310249789020
C           4.68142932262857    6.43270761711784    6.18864051228782
C           3.34968119196301    6.57332335863535    5.73753871527711
C           5.39110385089144    7.53397524146365    6.70962272560722
C           6.67495202448667    7.38932694152532    7.15986802328039
C           7.30932791663463    6.13892926080365    7.10660460751147
C           6.65028382445273    5.04989971760586    6.60392067513795
C           2.43161315094459    3.22209660638579    4.58737831909655
O           2.61904339693087    2.04213796567982    4.41124468943941
C           1.21734747437159    3.99779915513806    4.18396415037108
C           0.33351251453207    3.45250932876049    3.31743297897713
C          -0.67839390296019    4.12819893139547    2.56932150447334
S          -0.37084773018166    5.69832218008244    1.91597094786018
C          -1.95299761314944    5.79064250434905    1.18584434664462
C          -2.68050437292450    4.63859078830131    1.44566154220776
C          -1.93620007282045    3.68501823148420    2.21336010479923
C          -2.52934555775632    2.40807803943927    2.65075281467295
O          -3.52256446597222    1.90945212610966    2.19757801895395
O          -1.82610217994898    1.83073296100225    3.64275015913845
O          -3.95148751367009    4.36573616330182    1.18943119975325
C          -4.81564571266945    5.33335676562366    0.64295808687216
C          -2.25105260335980    6.95374497605982    0.39389196751093
N          -2.07356798502705    8.23518052351990    0.85184923974377
C          -1.76816797995337    8.64655767654645    2.20323809166264
C          -0.31843956526930    9.09822524184048    2.35058341873749
C          -2.37269559008896    9.19522236841631   -0.14534182812864
O          -2.32565152684766   10.38956737872254    0.04406392942790
C          -2.72319964932136    8.39952732815945   -1.29898901812576
C          -2.65095114371386    7.02778222669648   -0.93053574024650
C          -2.96602629310207    6.24260512055117   -2.10186486046514
O          -2.98770289361773    5.04679578187628   -2.30230612187921
N          -3.28104199602204    7.20042730988153   -3.09265403085344
C          -3.55394699056907    6.75351952105930   -4.43893015978965
C          -2.46627163314039    7.16860612637332   -5.42486012866846
C          -3.12131655017203    8.48835508215274   -2.62504046947538
C          -3.32385326182792    9.71694049314548   -3.31478703182215
C          -4.12369023748902    9.93425330356817   -4.38566742949142
C          -4.27344392363600   11.20045131742167   -5.01701243399858
S          -3.23109062555844   12.53887136661017   -4.66350411009756
C          -4.08738301550679   13.56950230818089   -5.79172000847036
C          -5.20788555250300   12.88988348618859   -6.32795035144169
C          -5.26529737850550   11.54127722817288   -5.93032073287347
C          -6.36266090467815   10.63168729386685   -6.37264271333157
O          -7.52407699858206   10.87295968435168   -6.23920878376106
O          -5.94573747061442    9.47356209781289   -6.92991688917805
O          -6.13194736637954   13.32267344623352   -7.18880516297961
C          -6.61304126567499   14.65677763503572   -7.18656411807059
C          -3.64384619584643   14.82347472374030   -6.23531083499977
C          -2.53655414642922   15.55543528036856   -5.88115699980050
C          -2.12190248866250   16.80166619352420   -6.49512409665912
C          -2.71175443427560   17.45314507555017   -7.55088594005722
C          -2.25679118687375   18.67940603530667   -8.07959956194702
N          -1.94733195473600   19.67515361629716   -8.56013180532753
C          -3.83470625357309   17.00703257085780   -8.27172899767882
N          -4.73917490474111   16.70407162555084   -8.91479363335979
C          -0.91992140358704   17.25595437288949   -5.80204861248457
C          -0.59913382391420   16.31261116678927   -4.78459681838988
C          -1.59189002787751   15.22903620096362   -4.80422218136719
O          -1.62251488145742   14.26161843001049   -4.06384587958376
C           0.48874536262023   16.46119025127625   -3.97431523364799
C           1.32944870604914   17.58313801977727   -4.15214609643823
C           1.01726651570617   18.53247064655027   -5.16731545426689
C          -0.12098402723014   18.35261462598120   -5.98741296788496
C           1.86443444208914   19.64558088035822   -5.33977512205077
C           2.96909497302919   19.81368578403883   -4.54947076176152
C           3.27559302817465   18.87829522321131   -3.55033777679002
C           2.47281215009887   17.78681062122879   -3.35540377934621
H           5.10594177579393    3.08550641797505    5.55445375063394
H           2.88810925333663    7.54737917639950    5.78138870204095
H           4.89699073736285    8.49346427190184    6.75160116770063
H           7.20890008663753    8.23767793814648    7.56083868789112
H           8.32263542070969    6.04297391426182    7.46656330944434
H           7.13377330436028    4.08503217344338    6.56112826346594
H           0.44389914573483    2.38818817274208    3.13791017555840
H          -2.25764044873079    1.00092597457214    3.90236314912259
H          -4.65828991389410    5.44205718695514   -0.43121891882990
H          -4.69195693896808    6.30329601188801    1.13375561966148
H          -5.82034606674529    4.95385140976031    0.82384557229849
H          -1.99732957451577    7.82412323176363    2.88486303176553
H          -2.42442646730691    9.49146915884593    2.43408652740241
H           0.36872115406587    8.29911608298548    2.07996072297766
H          -0.13177765605516    9.39087842642980    3.38023572514547
H          -0.13602946114706    9.95256371678680    1.70417812228210
H          -4.53777493853616    7.10207357625286   -4.76481147469879
H          -3.58896309669450    5.66118998067730   -4.37305371935284
H          -2.37839823420556    8.25096609390296   -5.48630754028915
H          -2.70102389741109    6.77674468099949   -6.41072909139323
H          -1.50745524261887    6.76312928843439   -5.11127956781307
H          -2.81774682173921   10.56083289247076   -2.86176645407984
H          -4.74211440219049    9.13583768297237   -4.76902703906449
H          -4.98913672174358    9.45079607919319   -7.06578933341635
H          -7.68536697023551   14.57776067941090   -7.37037886473122
H          -6.16203383000424   15.24364157842250   -7.99300106357562
H          -6.44564192789206   15.14516258410438   -6.22474452894179
H          -4.24652418193856   15.24672542505133   -7.02464125032682
H           0.70841671628024   15.72901367099227   -3.21160515059231
H          -0.32735524657232   19.09101422031013   -6.74540787589067
H           1.62428702513500   20.36302802658022   -6.11069157065125
H           3.61301857572940   20.66872183895576   -4.69085403509425
H           4.15118625883710   19.02620724654073   -2.93607463142554
H           2.70378574677806   17.06300928568909   -2.58757799062153
