107
 SCF done       -188.893365870160          0.000604027242
C           3.74752766835684    7.43094805878558   -3.12012842094018
C           3.51300565373954    6.68373232468373   -4.24224375316690
C           4.52033801696935    6.28062264001897   -5.14805978615174
N           5.28343534321513    5.87840719383470   -5.90433235158201
C           2.27529315831401    6.14165525239176   -4.65339200775024
N           1.32200330079514    5.63131157631200   -5.04161354377222
C           5.05604120704318    7.91955645796552   -2.70106029690600
C           4.91524498975873    8.57938222258799   -1.44828258543987
C           5.98428813656927    9.09187466978579   -0.77047426397221
C           7.27283142182871    8.97728799743581   -1.33671717754592
C           7.41862472629609    8.35814942009828   -2.61202051969984
C           6.29284835203627    7.82856618255379   -3.28404470521526
C           8.70509014421422    8.28335834734129   -3.18494757347881
C           9.79661528561195    8.78488410351515   -2.52784512298122
C           9.65311358866213    9.37982445398434   -1.26568767639849
C           8.41779577852436    9.47506195614972   -0.68362932403686
C           3.49961867057007    8.60067356924243   -1.05670977722064
O           3.04215273518347    9.13620828882806   -0.06754515591436
C           2.77509476497422    7.84323618426607   -2.11038665832826
C           1.44887586453012    7.53824442809296   -2.16889966226145
C           0.36545767196147    7.85122375688287   -1.31011299341137
S          -1.21010973321525    7.32135225868049   -1.86241105522988
C          -2.00450361539368    8.02573850768155   -0.49939784912940
C          -1.06853236851525    8.61445973888479    0.35600958579552
C           0.25188145315971    8.51515208380449   -0.10588164456361
C          -1.40124811057040    9.27203834176486    1.55444675301299
N          -1.67130834334633    9.79407076401780    2.53903646215878
C          -3.42666028426567    8.02610121111437   -0.45676209396108
C          -4.19170205697228    8.38718614596449    0.59530686196057
C          -5.61691952704357    8.53579813805059    0.56821672709083
S          -6.50963504717368    8.19226878121406    2.02276987144637
C          -7.97743873439595    8.67296376139939    1.28259754470536
C          -7.80641699440118    9.09837713730090   -0.00101371578479
C          -6.45788168015776    9.00660574887704   -0.42468417637701
C          -5.98898417720203    9.56944891537300   -1.74279578344988
C          -7.16209619827069    9.98378532008916   -2.64438355685056
C          -8.29103051940912   10.64449208420869   -1.86214514832270
C          -8.88725205316632    9.63731958013329   -0.88182976052909
N          -5.12739408522603   10.70225662218318   -1.44036217953123
C          -3.84275659325385   10.83479432993098   -1.79868052707172
C          -3.20139350311403   10.17543637955415   -2.80877352786432
C          -1.81118606682922   10.27877806228277   -3.02380287126274
C          -0.84785243307391   10.90533544423316   -2.24862584720251
C           0.42528805371111   10.67828419316459   -2.80151295347660
C           0.20807930430953    9.85659503053685   -4.01910004648230
C          -1.12116312880494    9.62019996270016   -4.13028996298536
C           1.19877884257761    9.34198695747741   -4.85930241773405
N           1.99936566333481    8.88414888709230   -5.54517800621139
C           1.65270866021535   11.09351539915867   -2.31605980395028
C           2.92041349132749   10.96024433349095   -2.93479697690443
C           3.89517277528418   11.53434929304179   -2.12427144431259
C           3.23391796557392   12.02204845042996   -0.92957520990508
C           1.89934119097004   11.77478057372107   -1.04077531843056
C           0.93053452899067   12.09188824249930   -0.08401665902635
N           0.12644202455194   12.35997544295742    0.69242763468535
C           5.24782426168957   11.57141456228912   -2.53025779274814
C           6.39445666046489   12.01278463831514   -1.92644084451848
C           7.70454007765170   11.94688757808393   -2.55725744433884
C           8.01741241529928   11.40960364579015   -3.78021324502647
C           9.32132403173011   11.38361655566505   -4.31796260523803
N          10.35085416063311   11.33022288062610   -4.82396875523715
C           7.13658732627165   10.77360476340005   -4.67972540700719
N           6.51658169973498   10.22198207872096   -5.47474813937809
C           8.68005582276373   12.52007655349530   -1.63641176998637
C           8.00594755439413   12.88655281523030   -0.44042934887047
C           6.56777925530259   12.59421885907191   -0.57161923844291
O           5.73434921623331   12.79117329043940    0.28684218201244
C           8.66306264673819   13.41257376242000    0.63366894287654
C          10.06043656310903   13.60322877836499    0.55804254450435
C          10.74376757849820   13.25378556487678   -0.64187965012659
C          10.03245095382991   12.71316513575017   -1.73760429830987
C          12.13877644562248   13.44761019226276   -0.70803339449557
C          12.82660775695201   13.95803935810939    0.35895696944857
C          12.15201375339528   14.30053571188936    1.54044596624525
C          10.79794563666218   14.12775501851046    1.63742576518694
H           5.84518734368323    9.58072622487676    0.18269058243068
H           6.44079547134390    7.36769750488936   -4.24679031953731
H           8.81060083685152    7.82497112913225   -4.15704144219510
H          10.77483691678006    8.72824416401583   -2.98011803859817
H          10.52381210005472    9.76861206900012   -0.75862185753665
H           8.29992650207218    9.93676535730289    0.28644523512703
H           1.13397520475897    6.96230295172910   -3.03076036374675
H           1.09371623460150    8.93034817349994    0.41869630512945
H          -3.89951913958857    7.68996079325119   -1.36869880920758
H          -3.72530725506740    8.57321150875948    1.55269939779050
H          -8.89286115732915    8.62282358019410    1.83786249656617
H          -5.38974803502695    8.83429030774883   -2.28229204999516
H          -7.55121898694792    9.09237947939924   -3.14033959693345
H          -6.78234393053225   10.65950074000111   -3.41248595127897
H          -9.06166649381286   10.99072303678010   -2.55160681614191
H          -7.91363476164369   11.51252240695753   -1.31788975219548
H          -9.34489695187314    8.81515791346528   -1.44043929114483
H          -9.66722675488259   10.09817925595149   -0.27423307275256
H          -5.45430103014019   11.28612803791719   -0.68509057131382
H          -3.28894428434154   11.57015127293325   -1.23060807121429
H          -3.74760221113366    9.51952575607807   -3.47133432419055
H          -1.02270022838452   11.46778179686252   -1.35402913569309
H          -1.60545138539481    9.04059309223438   -4.89475765159295
H           3.09886182232929   10.52051849199691   -3.89802320021964
H           3.72699226613983   12.48796695732499   -0.09983128112233
H           5.37837809491902   11.15899322843907   -3.52438076832286
H           8.12281505882981   13.67558155963116    1.53125884463501
H          10.58242117195096   12.46037959735727   -2.62925158715948
H          12.65375852344216   13.18218237417118   -1.61963820039016
H          13.89526181040111   14.10089325459677    0.29868398755377
H          12.71046690232942   14.70200777257533    2.37281828756747
H          10.27232734818529   14.39004325995550    2.54400703112121
