117
 SCF done       -225.237847777718          0.000964214673
C           5.26317648991537   16.98525246817648   -0.24568500217111
C           4.56928648640352   16.64233124070831   -1.37666249839123
C           4.68741172437509   17.32561602036793   -2.60524895196756
N           4.74811879403442   17.84272011481090   -3.62754806583918
C           3.71914168117351   15.52654999874221   -1.45809337107170
N           3.05399015624149   14.59913630537879   -1.59708991666039
C           6.31878509058406   17.98075913598634   -0.15721268744846
C           7.12211503136581   17.69301221337206    0.98701517859199
C           8.20398015918111   18.46043158550911    1.31076554129073
C           8.52783800651199   19.57144969897524    0.49964276346263
C           7.71598656372346   19.87399645808009   -0.63291271336420
C           6.60650985557926   19.05834452893670   -0.95047286648847
C           8.04260139366897   20.99549989615377   -1.42229909495290
C           9.12006615686749   21.78001363206314   -1.11261863036392
C           9.92063732617663   21.47941595234969   -0.00030869667518
C           9.63134234673844   20.39855524995967    0.78784851838581
C           6.56494311541007   16.52977748432396    1.69589511237340
O           7.00401146836519   15.94363112495414    2.65678060224577
C           5.26795560595270   16.25235267240283    1.00593287393464
C           4.30037593397268   15.56053739347142    1.65282951490704
C           2.90354496417589   15.50302556882407    1.37373468575504
C           2.06009088197137   16.47858302525555    0.84529916994027
N           2.31129974650613   17.84092212238193    0.61512250179435
O           3.41624054625843   18.30013156856455    0.87813086602397
O           1.39980227977648   18.50838627580888    0.15653331289897
C           0.74482879276620   15.92443748578718    0.65991523326181
C           0.77722305752936   14.61174790287955    0.99213885715634
C           2.09302958740367   14.29249259711309    1.48891225992156
C           2.45639643857919   13.05799606229864    2.00842255602183
C           3.32766571332574   12.77025150456177    3.08918991688276
C           3.16857448125747   11.45666476732096    3.45947713705558
C           2.25899843536165   10.82888215968605    2.57151367680428
N           1.94711349034504    9.46123849177850    2.62747933546607
O           1.25088148665571    8.98102718218916    1.74354392150697
O           2.39493605640041    8.82268202918166    3.56312367302243
C           1.81754287899628   11.77658319365571    1.62978706526584
C           1.08163464444367   11.51966330366503    0.47925318728741
C           1.05685728513694   12.31911698714322   -0.65060636015330
C           0.24532130493494   12.10869898803031   -1.75758978272014
S           0.75678521582958   12.81327602769489   -3.26158353385630
C          -0.41406089097681   11.92650562961493   -4.17315257110273
C          -1.17362776830922   11.06937237465515   -3.33719851218686
C          -0.90292129401260   11.28822933430363   -1.95107317027807
C          -1.76230060566725   10.71627494389693   -0.99120768013976
N          -1.84638407470836   11.15009582479020    0.36456617482617
O          -1.36623148283426   12.23650892365374    0.65047683188875
O          -2.44346491180759   10.44672342943122    1.15237864130110
C          -2.71802551449248    9.78767772184431   -1.40557670257340
C          -2.83372917434428    9.41558364970687   -2.72127338866893
C          -2.06296220505612   10.02186278080384   -3.72545566998260
N          -2.12840285237428    9.54676627764991   -4.97659490725954
C          -0.56067247862200   12.24138567749426   -5.54291726666538
C          -1.67375041023759   12.08012783067283   -6.35892813299425
C          -1.38509818989236   12.58418324527002   -7.64792135934377
C          -0.01072102272674   13.10157499408071   -7.59056132097395
C           0.46813904933287   12.89511180786752   -6.33451753106024
C           0.70142429749250   13.65753275516016   -8.66050650571549
N           1.29309912252088   14.11104643972315   -9.53311257993446
C          -2.22546756954225   12.56362231073601   -8.74866851567461
C          -2.07695832131538   13.23434987810321   -9.98283239203863
C          -3.18044282375882   12.97207982376111  -10.78154858960557
C          -4.05131029573142   12.06086950624281  -10.05151186082266
C          -3.49129525075251   11.80760028719646   -8.83910348217221
C          -3.93503488222836   10.88352749394185   -7.89043758614439
N          -4.24590375868712   10.09331373741817   -7.11411867203651
C          -3.39918090458029   13.49210286510790  -12.07556399689940
C          -4.52756497998493   13.29669374942401  -12.81880822064604
C          -4.65806130924548   13.83883757900360  -14.11455000068039
C          -5.77209822709282   13.72541975520522  -14.90041121850024
C          -5.94550938100060   14.24885410432686  -16.24240219628002
C          -4.98130437660782   14.82132695833525  -17.03262408180719
C          -5.21073395443465   15.29317039899622  -18.34264422556177
N          -5.32777063542005   15.69608754895100  -19.41112404798245
C          -3.62806289817269   15.00311646763497  -16.67829202219025
N          -2.51246235326542   15.17818282759508  -16.46977214231042
C          -7.33231334992765   14.02171263853967  -16.63271857299963
C          -7.99349683642019   13.32108548694965  -15.58313451281265
C          -7.04939369607527   13.08416294060041  -14.48003063829503
O          -7.27521217539991   12.49564423509240  -13.44297396189836
C          -9.31054868013315   12.97020085560811  -15.66746088311399
C         -10.04244839820179   13.31276476090922  -16.82615163542591
C          -9.38886641535035   14.01495399603656  -17.88005137626175
C          -8.02362803700614   14.36332423006512  -17.76503658033629
C         -10.12810004919232   14.35402102939866  -19.03144059977999
C         -11.45023213770132   14.01752082124442  -19.13819708888670
C         -12.09317121323727   13.32734368582220  -18.09965736152062
C         -11.40434659931531   12.98187605549152  -16.96847349901069
H           8.80359937672599   18.22794766007656    2.17833849815705
H           5.99490915031804   19.31626328236245   -1.80103609421958
H           7.42443128229167   21.22152525489140   -2.27850633990108
H           9.36154779233608   22.63724883281138   -1.72294792225841
H          10.76660069527247   22.10957299008562    0.23000067544384
H          10.24356849592738   20.16378209129936    1.64625533904887
H           4.64650041119488   15.01528527439800    2.52250779855103
H          -0.09516772214402   16.50031120472035    0.32330271723588
H          -0.05387552689351   13.93532719551372    1.00533844114770
H           3.91615110542552   13.48587530717619    3.62860436794098
H           3.64637325567548   10.95571650881858    4.28085696326550
H           0.61038513830209   10.54360155987365    0.43619176472585
H           1.79645205548373   13.10492230159361   -0.75149755779275
H          -3.36414198201492    9.36092407810351   -0.65336069982594
H          -3.54295813394632    8.65509058623871   -3.00707475483781
H          -2.86828422219726    8.91318595878301   -5.23162428199206
H          -1.60410510661971    9.96995402126918   -5.72345083924149
H          -2.64789391027096   11.76285161591899   -6.04505706415278
H           1.45073373481433   13.13845815352150   -5.97544915278083
H          -1.25800680993872   13.87846925789447  -10.23829695373290
H          -4.96640137602336   11.64251749884290  -10.42603055555648
H          -2.59796353135396   14.09373641974768  -12.48904971623332
H          -5.35334110844705   12.72239409040012  -12.42721638589566
H          -3.80538804790234   14.38768035234547  -14.49409985527155
H          -9.78884155307712   12.43932836296559  -14.85767548107689
H          -7.56074814948795   14.89831660747014  -18.57876501324999
H          -9.62845672542282   14.88501504570643  -19.82831023292932
H         -12.00811703739750   14.28178061177391  -20.02391840507612
H         -13.13708139663937   13.07087818387783  -18.20038817906199
H         -11.89443091112341   12.45039960447929  -16.16592075740248
