128
 SCF done       -234.747218451478          0.000990121938
C           0.73151643208648   -0.39699921456600   -3.34181976795065
C           1.35717082067921   -1.23131782181466   -2.45956588846883
C           1.81199802720548   -2.52885210858528   -2.77931755891508
N           2.20029954170113   -3.58821879531185   -2.98656327638860
C           1.65676846434904   -0.87628567552396   -1.12640501371337
N           1.95645220316131   -0.61232458954729   -0.05097594369464
C           0.46783395380220   -0.65324171065861   -4.75127812100470
C          -0.13027045731421    0.50460911348028   -5.33610718028224
C          -0.47034106921239    0.54972959997998   -6.65887391064992
C          -0.22689560616441   -0.57888205882424   -7.47189000901021
C           0.36292759776029   -1.74154680208358   -6.89437196370606
C           0.70537119610352   -1.76042917970649   -5.52341978392317
C           0.59767015349055   -2.86306701826114   -7.71571506579760
C           0.26839127213562   -2.83862388007277   -9.04384098031820
C          -0.31076258783610   -1.69349488830404   -9.61142159405054
C          -0.55369654441031   -0.58767327426947   -8.84240321473063
C          -0.30069528426396    1.53458763376031   -4.30788039261764
O          -0.78168721469320    2.64382449792386   -4.40576401790815
C           0.22953491219424    0.93703893079799   -3.05253870036650
C           0.11486795181141    1.60276938504159   -1.88572240430588
C          -0.50046562210343    2.91263584335049   -1.82621136292839
C          -1.77900788446777    3.10885369269779   -1.37104325778799
N          -2.61305696543431    2.06610783631440   -0.94322808834065
O          -3.73149368375390    2.33968912545320   -0.55679515975524
O          -2.14750591615155    0.93338601155048   -0.98768950321230
C          -2.14534949226823    4.50184916980487   -1.50770993318810
C          -1.08556124142072    5.15854685355450   -2.02535871565424
C           0.01087788933628    4.23337831458951   -2.22166191837632
C           1.28644132263498    4.49857218285294   -2.65273767203985
C           2.32170472755221    3.52897649981894   -2.91002975279425
C           3.33847974033160    4.13268694128189   -3.56559731088270
C           3.02056231730564    5.53267090808003   -3.72203008711288
N           3.96980647809557    6.45294361868439   -4.21311371831888
O           4.96526961346494    5.99282524248509   -4.74022051134203
O           3.76851274977573    7.64672279509808   -4.05645513338728
C           1.79573258495500    5.79614965844061   -3.13541628056442
C           1.15764068603115    7.06286436660068   -2.98245243376785
C           1.03339930448958    7.97317135848428   -3.97887668262822
C           0.44159458312257    9.25902762561307   -3.90487002012688
N           0.29737459285503   10.08099193791229   -2.81642283330409
C           0.93914122467392    9.96517964698107   -1.52496845336398
C           2.45933589930304   10.01024689651472   -1.64187732182144
C          -0.38132827742831   11.27728707463658   -3.15404304335798
O          -0.60976537069293   12.16687076443337   -2.36530572168465
C          -0.68704230155046   11.12855144002913   -4.56098242281678
C          -0.15570076099765    9.90524948692291   -4.99442462690376
C          -0.48451224632744    9.75140394802213   -6.39819567035488
O          -0.24002630968731    8.88116178620218   -7.20036953755440
N          -1.21164508865628   10.92486310924052   -6.71686917354803
C          -1.70063872906028   11.10677887994854   -8.06331044076869
C          -3.12469521229738   10.57887664489972   -8.22493885696670
C          -1.35571347518962   11.74846175571089   -5.62893809284091
C          -2.02886673061096   12.97939305884519   -5.48111982579322
C          -2.88097847372328   13.61543337370125   -6.33631493172377
C          -3.54059526336116   14.82697101649848   -6.03088276610037
C          -4.53184759390046   15.40781056609922   -6.80315795805444
C          -5.00696387196202   16.57950024288056   -6.15832584615046
C          -4.20309374540493   16.71804975175168   -4.92806960152080
C          -3.34460115654682   15.66849738789099   -4.85766469234163
C          -4.29019962534134   17.74670032801241   -3.98203503042601
N          -4.33499371712197   18.57823511296716   -3.19149731469174
C          -6.05026330144524   17.39212095375437   -6.55033661959941
C          -6.57576894096694   18.52289237089231   -5.86970699006562
C          -7.67773207815010   18.99950621365736   -6.55466124328030
C          -7.86176248174010   18.16321093062795   -7.73584701454013
C          -6.89595159002963   17.20929884631864   -7.74756026817454
C          -6.74733208015895   16.22765119989832   -8.73379614495641
N          -6.64552797743045   15.43224518662704   -9.55642482434360
C          -8.49366444753208   20.08326534394613   -6.15654151219491
C          -9.63893184962151   20.46395185900734   -6.79144251294836
C         -10.43463912086059   21.52882921321032   -6.31630500871258
C         -11.62548853782529   21.91255161971601   -6.86850870668481
C         -12.49473535431100   22.98104888438288   -6.41070881690219
C         -12.23429714497150   23.88292601747612   -5.41069738743571
C         -13.12550650042966   24.90279604727628   -5.01443044582893
N         -13.80161581030198   25.75163558194768   -4.63992608099845
C         -11.05212726194758   23.94365601474985   -4.64332979654453
N         -10.12176082663576   24.06450604236758   -3.98089105802503
C         -13.70653849262937   22.94771355701992   -7.22221754009588
C         -13.57727402331624   21.91420898890294   -8.19382545355146
C         -12.27776856509738   21.24514725076034   -8.02978259459209
O         -11.84159369706352   20.33376119228559   -8.70215485084671
C         -14.56337878659573   21.64544549535329   -9.09924390264233
C         -15.74994313429692   22.41124442915507   -9.07319687599746
C         -15.88894532752242   23.44584849934040   -8.10310046311105
C         -14.84956838207711   23.70194076429879   -7.17955885684735
C         -17.07807987368888   24.20274877740148   -8.08347871774137
C         -18.08262008546176   23.95105168408665   -8.97803375125852
C         -17.94475087257877   22.93203660903464   -9.93246013163322
C         -16.80314800100661   22.17857606485244   -9.97934153563818
H          -0.91992080456118    1.43709171072151   -7.07917122387205
H           1.14804016988406   -2.65499285563194   -5.11443984621174
H           1.04384275316335   -3.74214578169532   -7.27466835372936
H           0.45278381477311   -3.70214997810550   -9.66485911093710
H          -0.56341084588465   -1.69192970673062  -10.66101208005409
H          -0.99954109819403    0.29650360767587   -9.27362914347514
H           0.40733029126551    1.15398855639690   -0.94401256472648
H          -3.11233851232017    4.88945349938237   -1.25085016626281
H          -1.05825000734415    6.19706288827900   -2.28416190238922
H           2.27319367780656    2.49783040953235   -2.62363310512516
H           4.25773938832341    3.69696157508109   -3.90804877886745
H           0.73581811610365    7.25737393848547   -2.00699716692657
H           1.31642445138792    7.69047180047909   -4.98451675017078
H           0.61010294825406    9.05651399863140   -1.01571675620381
H           0.58279070259871   10.82383253209455   -0.94741989484200
H           2.83371548471876    9.21844874826911   -2.28626001792503
H           2.90303178846944    9.90153622146228   -0.65634603155860
H           2.77181933116446   10.96488032634120   -2.05771685083984
H          -1.03261749834741   10.52851057871893   -8.70895668063918
H          -1.62408005111464   12.16111496263432   -8.33669364608612
H          -3.13867613516180    9.50616640505095   -8.04922879140121
H          -3.47568114904563   10.76934920767583   -9.23520615544640
H          -3.80641112484471   11.05053368528652   -7.52032492337255
H          -1.85504215697357   13.42202660678730   -4.50861789188378
H          -3.13857043395899   13.18609036755008   -7.29249817940977
H          -4.90600132243968   15.02313382283316   -7.73167819096983
H          -2.63166109832796   15.49172905911225   -4.07453578409665
H          -6.18569512516675   18.92608271560611   -4.95571233260662
H          -8.63166202112083   18.29050910673735   -8.47325273452061
H          -8.18006443204006   20.61837031595145   -5.26772085352081
H          -9.97825591920870   19.93969699336080   -7.67163928626412
H         -10.06776575505423   22.05324162235273   -5.44295206322214
H         -14.43920849272602   20.85613536851529   -9.82580188404471
H         -14.98884497419976   24.49031480493153   -6.45728922658080
H         -17.17957799089003   24.98617618318982   -7.34690451759499
H         -18.98967704300907   24.53607847814090   -8.95487121872332
H         -18.74763530163734   22.74695880684964  -10.63023627776850
H         -16.69139779464479   21.39263938259099  -10.71185401330853
