124
 SCF done       -235.113132420379          0.000962217763
C           1.28221754022673    6.10657685312756   -3.72151236050401
C           1.54705273232082    7.06727017318807   -2.78202158911393
C           1.57067475513150    8.44867019570089   -3.05813363880727
N           1.57668300842497    9.58273584235623   -3.23520555673469
C           1.92360825185368    6.75100235885547   -1.45982480192742
N           2.28324797700225    6.50423687968051   -0.39821833769257
C           1.20232816946443    6.32076474912709   -5.16069774407960
C           1.45875114094161    5.08021377217570   -5.81705195199474
C           1.50623926293206    4.98787248938513   -7.17841680642875
C           1.28620058597752    6.14688991854836   -7.95625695809288
C           1.01145683913521    7.38503164858421   -7.30571591748406
C           0.97429607108161    7.45356538472621   -5.89418605485796
C           0.78969938445987    8.53205668373195   -8.09457008772910
C           0.84085966147170    8.46311269576257   -9.46015928444209
C           1.11325941720256    7.24449833164381  -10.09974852420616
C           1.33090493794879    6.11130427595390   -9.36398958744401
C           1.63945137187581    4.02091254883374   -4.80929245054779
O           1.92374560340744    2.85848147319553   -4.98159902179763
C           1.33253158292928    4.67428915978480   -3.50246391826301
C           1.06757935168800    3.91185890751994   -2.41339120077137
C           0.38931192612638    4.27155378013959   -1.21787359777139
S          -0.82733151183115    5.50973549757873   -1.18793288953715
C          -1.17656529856430    5.20994141613822    0.48969051928647
C          -0.35433226927962    4.21334453583411    0.99474676714949
C           0.49091227408724    3.65813277018447    0.01856155498961
C           1.41362943465246    2.52175286105779    0.31307843455400
C           0.87531246391448    1.67494968479543    1.46977346213695
C          -0.34587099798792    0.86674381320491    1.04225231395919
F          -1.36184407107900    1.59194443006372    0.55441777997845
F          -0.02744708162496   -0.01836297669114    0.08572650724649
F          -0.85161489477918    0.15842851622240    2.06562759209983
C           0.56971927932526    2.56591483776893    2.68647821913010
C           1.82787118011679    3.12130654973694    3.14900998465361
N           2.83084540587324    3.52795219428068    3.51113287560920
C          -0.43298656365904    3.69446219409629    2.39027265275529
C          -2.19237093217896    5.94868691661744    1.17472937617696
N          -3.39378658735191    6.30944050282236    0.60951026907755
C          -3.91097597308943    5.97707310729417   -0.69694035515379
C          -3.73431619163642    7.13047725243135   -1.68082360498436
C          -4.20225691126165    7.03961809156711    1.50818583676352
O          -5.31902629460512    7.43398708459702    1.24212731765820
C          -3.39759051684975    7.13852952831188    2.69639257254021
C          -2.17613550169338    6.45005276193223    2.47404633165825
C          -1.37109074846536    6.64109221337445    3.65873221816097
O          -0.26602117465785    6.23445121573643    3.96642387273863
N          -2.15206606904920    7.44303427237767    4.51166365786213
C          -1.66092361206195    7.75041542979960    5.83438571859793
C          -2.39243435575397    6.96039788435390    6.91602438822612
C          -3.37114980386657    7.74351163983634    3.94721076188696
C          -4.46691339156570    8.50320593106868    4.43793003347650
C          -4.52700041084817    9.30320283781687    5.53065389168709
C          -5.66098904062386   10.01817674130961    6.00284747908113
S          -5.51751245233242   10.72757764577394    7.58151200711059
C          -7.18290520105283   11.22729672728781    7.58020584680108
C          -7.78927525123441   10.90611810476580    6.37146152974856
C          -6.92605545987417   10.25501720087297    5.47381042157803
C          -7.32707484345259    9.92316267891007    4.06899426487143
C          -8.52642361359772   10.75604575678112    3.60554353067519
C          -8.09989176109053   12.18057888162402    3.26215383827449
F          -7.38568720729393   12.79395070513127    4.21462752588022
F          -7.34270470226675   12.20156512788161    2.15595320044171
F          -9.15773975166429   12.97269090980623    3.01638622710143
C          -9.63831905760294   10.73976800925969    4.66637697298148
C         -10.06889160865565    9.36769734815401    4.85076541087439
N         -10.40466016497143    8.28462268798498    4.98225359459238
C          -9.17632036916960   11.32640410659485    6.00761433658148
C          -7.61041861556692   11.96331544460670    8.72086387160066
C          -8.77705245868157   11.88763130867435    9.41755422689187
C          -9.12478603151672   12.71913237547612   10.55941248035342
C          -8.59103983669792   13.94494092639687   10.85325900462860
C          -8.98230545258436   14.72970148628104   11.95841246551434
N          -9.25560555979723   15.40528488368674   12.84521275314132
C          -7.61743025169810   14.60129716345210   10.06991400167682
N          -6.84475179053257   15.19822759696524    9.46582057901312
C         -10.20222271020233   12.05485894888631   11.27862811712411
C         -10.58675291161831   10.89425564668189   10.54689381516940
C          -9.75326503319295   10.77318802709533    9.34137246920804
O          -9.80954267624434    9.90334115505036    8.49578743214215
C         -11.57692875154754   10.06173526620016   10.98336425285004
C         -12.23781794832443   10.35637606300057   12.19701058590976
C         -11.85549829721945   11.51263388930357   12.93741709029392
C         -10.82814934511488   12.35771082992315   12.45874812658709
C         -12.51644494400573   11.79108484631318   14.15091255689588
C         -13.50726552714666   10.96808828339500   14.61317029126975
C         -13.88259641458640    9.83006112371717   13.88384820042504
C         -13.26246426130986    9.53144012029936   12.70074521707004
H           1.71211584868185    4.04219332321210   -7.65739135735037
H           0.75841280614285    8.40071886395456   -5.42451017664372
H           0.58454786491360    9.46868140230033   -7.59737417161271
H           0.67292133358813    9.34801979031505  -10.05545458202421
H           1.14978640417065    7.20818310224103  -11.17818433239324
H           1.54098817482956    5.17033715007935   -9.85101732634258
H           1.34238501719656    2.86497593951749   -2.50910139357820
H           2.39330699961578    2.91720505048608    0.59868566735875
H           1.55385106791390    1.89954956916020   -0.57392939629426
H           1.62501302693532    0.92573784801160    1.75207479052987
H           0.17572863072037    1.94843065796064    3.50339113174713
H          -0.22706059184401    4.51627492548530    3.08608240481045
H          -1.45260070216109    3.34938313849440    2.58510610087040
H          -4.98056270506872    5.78453934718436   -0.56676523523894
H          -3.42804145143767    5.06859700202378   -1.06097261563756
H          -4.28182579010615    7.99950933397870   -1.32547834198034
H          -4.12312575952204    6.84519918402968   -2.65395115338091
H          -2.68509550040577    7.39648807998933   -1.78639824150561
H          -1.72095032422991    8.82664995437473    6.01411410468769
H          -0.60450049083994    7.46449482055226    5.82577898449006
H          -3.45997906095010    7.16738751636870    6.90491857293056
H          -1.99495748684431    7.22308982710927    7.89230054527785
H          -2.24616216029451    5.89466901539496    6.75812112509790
H          -5.33380649933790    8.38988463387081    3.80598384428046
H          -3.65690307855886    9.42107730409917    6.15884945596925
H          -7.60132930237850    8.86570695092762    4.00261566619806
H          -6.48872227021269   10.09700213183150    3.39002499398505
H          -8.91117070797728   10.33878821186189    2.66736698430803
H         -10.50528458787179   11.30786993636379    4.30688463226191
H          -9.86601174294201   10.98492671147649    6.78179416352272
H          -9.22388961963125   12.41897780618920    5.97466443908533
H          -6.83773028807423   12.60720042078519    9.12888859834850
H         -11.84997366519993    9.18759274454263   10.41099747135840
H         -10.55421434802795   13.22093257912941   13.04452712511904
H         -12.22413430790287   12.66865943938084   14.70862693752028
H         -14.00679981967730   11.18945354878553   15.54432926995654
H         -14.66546545993832    9.19105520670357   14.26394668502154
H         -13.54735859692127    8.65676839810875   12.13462223384364
