88
 SCF done       -176.505387874830          0.000763218551
C           1.71392608062689    1.24244860520201    1.38068906768453
C           2.48664209720825    1.85120515989605    0.42732314412609
C           3.33927353069160    1.15102448188831   -0.45229451541919
N           4.04887625180732    0.62552100963004   -1.18466957162355
C           2.58810661912327    3.24838596213438    0.28017399788223
N           2.71651890044059    4.38206418932322    0.15149645364441
C           1.75454744237554   -0.17460441393696    1.72069041981546
C           1.22913553767792   -0.34333982718367    3.03620912571326
C           1.17308430548024   -1.57043134699724    3.63287519946031
C           1.63641272746794   -2.70253326456082    2.92562166696139
C           2.14656801412814   -2.54196437018557    1.60416850271302
C           2.19947078156799   -1.25890980998556    1.01325317595529
C           2.59736706628347   -3.68094669528384    0.90663269656868
C           2.55023948296903   -4.91994022839739    1.48553188874262
C           2.04910984209834   -5.07718113063303    2.78649624159469
C           1.60251442413667   -3.99237205079451    3.49140307805803
C           0.78351113537640    0.95955315050361    3.55489147149438
O           0.34175827037999    1.22637156275545    4.64750998536452
C           0.92859473989524    1.90545292661249    2.40446297199458
C           0.28129668096975    3.09624995538912    2.44192595643250
C          -0.03804861866875    3.94352715563521    1.34776201971415
S          -0.33558213423603    5.64807227751885    1.59966104535742
C          -0.68522515723476    5.93906321769472   -0.08688411554662
C          -0.60260211568995    4.71533314837251   -0.77686204970892
C          -0.23039347676402    3.62651535928663    0.03117094857827
N          -0.83886337672647    4.50426962899389   -2.14326565847470
O          -1.22853989589367    5.44492306071369   -2.82607007330729
O          -0.65473431824847    3.38635367048967   -2.58451255888560
C          -0.96211887404789    7.25097966377617   -0.50240681000099
S          -1.43325686531350    7.73246411963799   -2.12245571768444
C          -1.56058450883714    9.41510179488810   -1.71219503333603
C          -1.24275959769867    9.61942477936876   -0.36237568202789
C          -0.91628581809811    8.40234512103900    0.29789938364040
N          -0.63002709531629    8.68404877071547    1.59107356975105
C          -0.76410358129904   10.04428161414336    1.77868728138762
C          -0.53648779897746   10.64612081952495    3.02422132834038
N          -0.35660043783359   11.14759301654134    4.04017969173579
C          -1.14313134347686   10.65014126714720    0.59915371870312
C          -1.95256431574981   10.31137304676670   -2.72844149003555
C          -2.03412541574079   11.66254127108211   -2.60918160770701
C          -2.44446818268010   12.53357800718273   -3.65081241801574
S          -2.39043523190188   14.25629589381434   -3.40413074629778
C          -3.00632808749201   14.57072558940930   -4.99610942631238
C          -3.26561359265907   13.34937756266339   -5.64749918855533
C          -2.94566708009490   12.21907694980027   -4.90210193680009
N          -3.84917938450994   13.21126729061835   -6.94505029761563
O          -4.47172528718843   14.14792068113777   -7.40375797618371
O          -3.70193366814635   12.14192593827946   -7.49586681287972
C          -3.12139561698466   15.83794084281304   -5.60398631684597
C          -3.00732018733282   17.07764289589584   -5.04430800639979
C          -3.14239027599193   18.33477800279823   -5.76295774579766
C          -3.00647807317953   18.51318056156064   -7.11269732831377
C          -3.15041109921117   19.76040322854540   -7.75689725117130
N          -3.26436274981203   20.74823821952077   -8.32965793084232
C          -2.62419019164183   17.50158851527762   -8.02203078018329
N          -2.25142028844666   16.74372080874998   -8.79871820782270
C          -3.33863903825511   19.38473025948396   -4.77151659360965
C          -3.18603314685317   18.81512080087839   -3.47296610591432
C          -2.92005738788037   17.37696211416626   -3.60259096100679
O          -2.68945688650902   16.58829411357411   -2.70337579374097
C          -3.28701582481863   19.56902617006122   -2.33840202295461
C          -3.55868257779195   20.95050686254941   -2.45269284651605
C          -3.72476136151351   21.52479439485463   -3.74670898804159
C          -3.60891772208201   20.72043834897870   -4.90391151210355
C          -4.00061163765361   22.90328554596428   -3.84749489426274
C          -4.10506029596931   23.68002982425594   -2.72548736982066
C          -3.93948633823068   23.11443559508109   -1.45238763173805
C          -3.67224358852318   21.77875443278559   -1.31867297882369
H           0.77849644404778   -1.67698613809003    4.63237308392873
H           2.57871552989548   -1.16587954791641    0.00751641557865
H           2.98496694871699   -3.55422792260710   -0.09340378755024
H           2.89933594745027   -5.78608226746451    0.94385277787361
H           2.01821926091481   -6.06225499720603    3.22725331221867
H           1.21554663114004   -4.10773858670570    4.49319591840311
H          -0.09367688380086    3.39746836128017    3.41494203491681
H          -0.15379503971480    2.63125276602350   -0.36925678728869
H          -0.34046163511946    8.03708662936008    2.30559992248598
H          -1.32089296055412   11.69846090264828    0.47365016021086
H          -2.19165342487772    9.84839747932564   -3.67586627112178
H          -1.75902396748943   12.13752208445083   -1.67990559637569
H          -3.10075144362174   11.22334866285586   -5.27582303956121
H          -3.37297365640675   15.79869578501491   -6.65810743234787
H          -3.16141960061751   19.11698000458502   -1.36570997741234
H          -3.74308094288836   21.18223056194946   -5.86926401212739
H          -4.12551551410898   23.33449654796811   -4.82980416660841
H          -4.31550028134669   24.73526345459663   -2.81331115925799
H          -4.02489924220937   23.74211406673070   -0.57812892614054
H          -3.54401055083387   21.33788603387089   -0.34095154859060
