128
 SCF done       -240.210074829019          0.000651302296
C           7.26462177583725    3.38009660925543   -0.54632065075870
C           8.21185006738704    2.41885379953086   -0.77583424269471
C           9.19651258399668    2.04206330696819    0.16068993742547
N          10.01118180079015    1.69568730950319    0.89111080836032
C           8.36176719599318    1.74356243346789   -2.00608459144056
N           8.56761440439891    1.21091024476566   -3.00169488872633
C           7.17726888302812    4.24657896120923    0.61965954802039
C           6.20056489579976    5.25167845835013    0.36197669340115
C           5.91836105939626    6.22811476786638    1.27448226108289
C           6.60892632785536    6.24206729616364    2.50667514323694
C           7.57837897179265    5.23258829051283    2.77476555847151
C           7.85165412994183    4.23484335672666    1.81129192736427
C           8.25527115383437    5.25201981905606    4.01094894402270
C           7.99092948922058    6.22259695097307    4.93868800329478
C           7.03779178042672    7.21715787973078    4.67333811821246
C           6.36196532538625    7.22693341023652    3.48341777027936
C           5.59792808734708    5.03250354885165   -0.96258240106982
O           4.70106802539003    5.68285861492769   -1.46331640288033
C           6.24944908631001    3.80420193566040   -1.49249718379308
C           5.80510401506450    3.09588676861379   -2.56582208890176
C           4.90705279690973    3.60468317497652   -3.54304678966663
C           3.75178623720681    3.00177074850852   -4.02768192810127
N           3.26586189081194    1.74062261222286   -3.65093992822580
O           3.86815047914844    1.13207389090535   -2.77893142839345
O           2.27187095755775    1.32371786824179   -4.21922796987788
C           3.07216775258862    3.91115305548433   -4.89862885008954
C           3.77239335959923    5.08032331177309   -4.92464409875462
C           4.94902385124780    4.93705188386447   -4.11957505905476
C           6.01216385837579    5.82063329504724   -4.00516416850428
C           7.37841555379161    5.50481938992004   -3.85879705785941
C           8.10140742605261    6.66572143565510   -3.93910577047706
C           7.22205496478522    7.78401212950021   -4.07377310949815
N           7.73389558890581    9.07618589573464   -4.08269923044311
O           8.93242088682293    9.21210794120716   -3.88361154303828
O           6.98587051496995   10.03565896507759   -4.28007575703695
C           5.89608649249858    7.30276903603703   -4.07972309860651
C           4.64256434440532    7.87450024043036   -3.87889238059122
C           4.33088052642184    9.21765613125743   -3.95267291208233
N           3.15452473304648    9.75696236158497   -3.64804383220906
C           2.06926952032924    8.97783426673334   -3.07941995436295
C           2.36485675765469    8.59837409795226   -1.62832152753288
C           2.99892370104865   11.14813032811852   -3.80365428318675
C           4.02952258847071   12.00832753286139   -3.42623154358774
C           3.90652201882956   13.35956316798219   -3.65638524044366
C           2.78177879988025   13.88841782509553   -4.28800544180173
C           1.73160848880439   13.03223727751038   -4.65812652855368
C           1.85465572808188   11.67487172330777   -4.39092837083877
C           0.58305301340921   13.51033296540751   -5.43070772606299
C          -0.65550588253812   13.05623229413038   -5.30302756263830
N           2.75616803835086   15.27570073323698   -4.51514225298025
C           1.58823135139528   16.03576833596436   -4.09557022585265
C           1.23239105694456   17.13571983788521   -5.08613267103053
C           3.89408154269728   15.86851902961703   -4.97337532674085
C           4.40865493283141   17.11260793255481   -4.52000219132492
C           4.00824721695696   17.77917837026417   -3.27534882760659
O           3.36798689324768   17.32678484714287   -2.36668459741711
S           4.75535392828769   19.40988833872418   -3.19185241897131
C           5.77532783412636   19.10245046657458   -4.62992547324549
O           6.55435436856512   19.90189964726153   -5.05466659405679
C           5.47705349488881   17.75425250465566   -5.15564477450270
C           6.22216019034920   17.17270227406694   -6.19430524339913
C           5.80167109392910   15.87674958079293   -6.53887567247415
C           4.67171372795953   15.27444195424210   -5.99801397685206
C           4.46731751872760   14.01238235829597   -6.75091176627187
O           3.52744574614297   13.27665452210331   -6.78530623682943
O           5.56674750305899   13.82215399993861   -7.54130889102018
C           6.43662695635620   14.88100162529691   -7.44575459275444
O           7.49872884607782   14.88214285657236   -7.98024023110403
C           7.34112647006739   17.82837724716098   -6.82538288790982
C           7.61790051697726   17.71152273782309   -8.13998441547603
C           8.79138417076904   18.26637455154048   -8.72372967176794
C           9.13719542978799   18.08347799679234  -10.02476164846056
C          10.38317987922068   18.48506054416361  -10.66339154000390
C          11.30878877915605   19.36225801704504  -10.16715407037068
C          12.49057277344974   19.73062866664552  -10.84632964868729
N          13.46529228385452   20.07242276182158  -11.34647294702612
C          11.20853418435637   20.04648706000501   -8.93621794524325
N          11.19796336108756   20.64520162859867   -7.95690397080938
C          10.45512011233190   17.80970641647756  -11.95243311027251
C           9.23735586438116   17.10192282247369  -12.16779113087662
C           8.34114881096584   17.30055202406620  -11.01891546664034
O           7.19378934003640   16.92491850754740  -10.91759510911894
C           9.02126882375610   16.36501226039181  -13.29712337530819
C          10.03463154211059   16.29436214274063  -14.27823423474331
C          11.25728674615420   16.99676147784385  -14.06914929044738
C          11.45086979759992   17.75552960329921  -12.89278372425239
C          12.26377140356690   16.91563897075317  -15.05332117452687
C          12.07412940926193   16.17623876066622  -16.18883076669494
C          10.87055964868317   15.48441878028034  -16.39313700495395
C           9.87237438458473   15.54275532132186  -15.45876918303075
H           5.17582882735806    6.98282943769012    1.05987600485763
H           8.58546446256936    3.47904886925607    2.04292115062316
H           8.98934323549599    4.48518431768006    4.20957185339535
H           8.51533987554687    6.22954583430000    5.88229533056948
H           6.84161808812690    7.97534817298128    5.41660529445327
H           5.62666430192233    7.99033266698518    3.27428431771552
H           6.08615491455037    2.05380224999758   -2.67039594464669
H           2.16335808280287    3.67430446102549   -5.41804060984742
H           3.56386405544546    5.92955492785746   -5.54793412051623
H           7.78067103759227    4.51119726698124   -3.80566602362346
H           9.17121599326709    6.76307074271058   -3.91302332794054
H           3.86744261606537    7.16796908589135   -3.62566763554923
H           5.08358650396584    9.90165248262444   -4.32174231589973
H           1.91078388549140    8.07725763597597   -3.67833452133094
H           1.16259302402427    9.58234406553175   -3.11271275230935
H           3.22260291139725    7.93449262616088   -1.55982816978853
H           1.50333086203671    8.08805333899270   -1.20690568608193
H           2.56124802993485    9.49191161146472   -1.03971292020799
H           4.91753029069269   11.62297987776210   -2.95128952869128
H           4.69651253393521   14.02655134571104   -3.34416454574178
H           1.07636321476516   11.01646558137894   -4.74437249833849
H           0.81401315871546   14.26372803843738   -6.17120078674710
H          -0.92340007161790   12.32050208385701   -4.56260728667774
H          -1.45663301023629   13.42223298451553   -5.92085646337028
H           1.74575511261128   16.46926918409742   -3.10074732638899
H           0.76430380414044   15.32572643778700   -4.01907767122668
H           1.96885124338307   17.93631967180006   -5.07873348063926
H           0.27038542713042   17.56220166477573   -4.81665516610761
H           1.16680759814169   16.73954458814713   -6.09740264461347
H           7.95025865070484   18.46770423474537   -6.19996996318277
H           6.95463701426587   17.16958209906786   -8.79655238684989
H           9.46253357027619   18.79386399447094   -8.05798641575436
H           8.08986066753852   15.83640191543951  -13.43557128608644
H          12.38980504240473   18.26942236312232  -12.76112788658453
H          13.18842532519971   17.44989875390549  -14.89166737039049
H          12.85117614691510   16.11943745824053  -16.93619832284602
H          10.73891335749819   14.90461030904767  -17.29436227228046
H           8.94402823789004   15.01180149417221  -15.61023151121461
