122
 SCF done       -243.266332914682          0.000929172086
C          -0.92630585619986    2.08794160470846   -2.39953382471190
C          -1.03663078611026    3.20846790389741   -1.61811333947813
C          -1.14193516657381    3.18106305562111   -0.21171878051822
N          -1.21943840705140    3.22483825625362    0.93229645753232
C          -0.99075502647706    4.51938028736462   -2.12040194285669
N          -0.93239864842778    5.61495914269164   -2.46323449367159
C          -0.76984177278416    0.72593800923225   -1.91429008881218
C          -0.19999923333933   -0.06758003542100   -2.95411777944907
C           0.07053040072610   -1.39363150985375   -2.77437026730410
C          -0.22859278347080   -1.99515017249741   -1.53096540079065
C          -0.81387657015743   -1.20997075895821   -0.49479316831100
C          -1.07902938355133    0.16201749326154   -0.70613050723947
C          -1.11818382223772   -1.82760021085490    0.73543231263422
C          -0.85536930081897   -3.15522911351855    0.93663829251740
C          -0.27738122537397   -3.92662314165937   -0.08273327895586
C           0.02956089799767   -3.35893234638340   -1.28963234650371
C          -0.02010589261146    0.76174161425337   -4.15637168427217
O           0.49791093458559    0.47013131417637   -5.20840785358672
C          -0.68729491253599    2.05954886202338   -3.82909611072859
C          -1.07012341291038    2.87505269511962   -4.84091834821446
C          -2.02200552280470    3.93526143891063   -4.84761160923469
C          -3.19005822161986    4.09069372903459   -4.09850740157374
N          -3.83304415525325    3.17528729179233   -3.25109451547435
O          -3.36050159636490    2.05444503183610   -3.10699743679373
O          -4.85180477431782    3.54918612955801   -2.69392445853298
C          -3.79617811094196    5.35466692892153   -4.41259818857188
C          -2.99284081769814    6.01032102997705   -5.28185189268297
C          -1.87387425531165    5.16117036680565   -5.62069676402476
C          -0.89212408225856    5.50433180552797   -6.53998407393802
C          -0.20650456714837    4.68651414902826   -7.47368602958317
C           0.37638519395868    5.48819736563576   -8.42058153186077
C           0.16540351817791    6.85565205883517   -8.07716957433082
N           0.69908816109859    7.92674688906099   -8.80896637123933
O           0.47666054265878    9.06488321375594   -8.42331206833735
O           1.35232655733232    7.65786363455576   -9.80269594955183
C          -0.56249912027682    6.91174001647964   -6.88693483993984
C          -0.77860497907763    8.01960490234491   -6.05637655913845
C          -0.99841767793693    7.91944429095509   -4.70601981772841
C          -1.32886978147953    8.98414739178572   -3.85227043370651
C          -1.51416438017980    8.85118815294918   -2.48741962643828
C          -1.91425187294531   10.03444962981954   -1.85620243324100
C          -2.02357676727193   11.11255169864353   -2.78057149984970
S          -1.63998831886841   10.62063348569665   -4.40040439540654
C          -2.41583071722091   12.37272874763103   -2.38771621539101
S          -2.56107432907938   13.69377507986344   -3.56415665529601
C          -4.37662598815450   13.84094712461091   -3.61951534738637
C          -2.70979044533089   12.57014017886905   -1.02963018670780
C          -2.64452784763567   11.49279614765763   -0.10496531366527
C          -2.22430524568761   10.22338756530794   -0.48485190014446
S          -2.04980288568336    8.79721701202264    0.51070033397787
C          -2.00595692460475    9.35514799186462    2.23411710878862
S          -3.17250171868683   12.02187127538201    1.47121640582332
C          -3.43032840804800   13.64109921410470    0.89702803792186
C          -3.13228518134892   13.77514766591876   -0.42365946102328
C          -3.94188418454574   14.64954124753875    1.80608636081797
C          -5.08183569382164   15.42222560998039    1.52850892204904
C          -5.91280930491095   15.26819012059964    0.31520679587866
O          -5.78075416380086   14.48542408652624   -0.58199408036068
S          -7.25322096044664   16.44846362499124    0.36196536039017
C          -6.76285867688372   17.09776209099449    1.96521301918483
O          -7.34545339891446   17.98934537943045    2.50516939405326
C          -5.57496331817314   16.36461856348258    2.43593653278265
C          -4.98295486569437   16.61030269346476    3.69085961315785
C          -3.85401635924429   15.82467036402281    3.96240087475549
C          -3.35938249705130   14.88789959050262    3.05527396438252
C          -2.16856416876018   14.25970383373542    3.67522157208334
O          -1.40288348849496   13.45903584870599    3.23153719746878
O          -2.05082040760180   14.77815233277688    4.93549411196255
C          -3.03633334869181   15.70484601252300    5.19620863875982
O          -3.14955508012175   16.22566878856010    6.26037060692679
C          -5.53445230432998   17.55881447886607    4.62871186660445
C          -4.79663258255594   18.40811212426979    5.37081537013373
C          -5.40428761133890   19.28084810287718    6.31960162553340
C          -4.73676670075703   20.23129148261560    7.02280404078331
C          -5.27682876106950   21.08680485620124    8.07204567632387
C          -6.56372698377272   21.09694425745201    8.53868450448617
C          -7.02814191932976   21.95272737962594    9.56191097665255
N          -7.47254140180794   22.61715831016139   10.38522780852340
C          -7.61492760556151   20.26920428518781    8.08795233510690
N          -8.52415652070380   19.63630053289748    7.78692905159602
C          -4.19273592771720   21.93016923764144    8.55809880489253
C          -3.00796837062302   21.62436696460844    7.82796251800737
C          -3.29351240813049   20.57594995689974    6.83795360853658
O          -2.52404399069571   20.11464454465681    6.02402534242286
C          -1.82559668678254   22.26425320791309    8.06922216899295
C          -1.77059937807340   23.25628104124299    9.07262641168035
C          -2.95027691813659   23.56616020321359    9.81052658107907
C          -4.15993015390748   22.88915645102244    9.53745631244031
C          -2.88471167737562   24.55702012291277   10.81162401772856
C          -1.71194754640170   25.21206907204989   11.07152874668437
C          -0.55171742238638   24.90745626298802   10.34334546424801
C          -0.58008444960480   23.95031139548365    9.36555891197018
H           0.50313113198361   -1.97992525839002   -3.57143387957269
H          -1.54059497652100    0.73211370122739    0.08498992679645
H          -1.56150156000574   -1.22911188155318    1.51749817048864
H          -1.09164738595051   -3.61890128500511    1.88263563212481
H          -0.07800370509506   -4.97318678808734    0.09253710056321
H           0.47315701540895   -3.94889197572548   -2.07824160087504
H          -0.61068187080749    2.63957122497393   -5.79366429441182
H          -4.73721082820431    5.67431224713420   -4.00935506052399
H          -3.19423283778449    6.95538079243894   -5.74553836527414
H          -0.24686955203385    3.61658347078788   -7.52399095525847
H           0.91378856635121    5.17022535839826   -9.29461633122860
H          -0.68395327414325    9.00042119643778   -6.50901786762115
H          -0.89138298365674    6.96436116260674   -4.20790161135328
H          -1.37607330387863    7.91048502942722   -1.98418695513935
H          -4.58868449780554   14.69429337056734   -4.25504553856134
H          -4.77994625831144   13.99980067082205   -2.62426128570434
H          -4.78723143881124   12.93725922634678   -4.05955890921240
H          -1.61968589163601    8.50438120917970    2.78886864253266
H          -3.00401460724124    9.59835116260914    2.58464929561756
H          -1.33430362877951   10.20100985313033    2.33814645477283
H          -3.18081017721148   14.70949653877751   -0.95259194176334
H          -6.61500755173707   17.60485684105083    4.68204678846874
H          -3.72458416030755   18.46324904996095    5.25803602774067
H          -6.46321318618820   19.13568159870986    6.48996148226281
H          -0.94250056501262   22.01362525623999    7.50043694681863
H          -5.03383394702324   23.14889809568817   10.11317671767590
H          -3.78036523475960   24.78788092481865   11.36932493213709
H          -1.67147285077755   25.96914118925710   11.84010074304404
H           0.36455105876821   25.43518564445691   10.56139597114034
H           0.30995042800827   23.71145633458803    8.80218154650205
