102
 SCF done       -198.321344052289          0.000925431641
C           3.53176803067937    7.74650674534511    3.86817495472745
C           2.93992157255858    7.39148573758011    2.68475160987971
C           3.31076542258465    7.92161655458670    1.43301306980762
N           3.55856024852546    8.34218880074329    0.39404810272507
C           1.95385948188448    6.38780326692300    2.58836176970695
N           1.18691394202231    5.54140654567356    2.47276886902188
C           4.75753621795899    8.52386890451075    4.00161968546524
C           5.34298704522129    8.22864757288492    5.26836246264339
C           6.53539070392242    8.77331997352942    5.64952077816628
C           7.20113561777400    9.65845450939033    4.77173618093989
C           6.61201385009738    9.96998797273915    3.51191203139587
C           5.37895110317096    9.38697893500690    3.14018116764708
C           7.28531759721585   10.85758773110800    2.64818225385294
C           8.48500357060400   11.40882618222623    3.00735410006698
C           9.06505594779518   11.10057575888348    4.24698820339010
C           8.43693700586124   10.24428848055012    5.11014254610737
C           4.46616183022924    7.30461781497238    6.00998570175526
O           4.65606359285503    6.79291157721914    7.08860273225065
C           3.23888736726472    7.17838950967153    5.16913124762016
C           2.09307377365934    6.70327763758226    5.71969094588902
C           0.75500996995735    6.85732499378781    5.27063547418112
S           0.24123389263848    8.17938609921647    4.24900553999015
C          -1.39892263717694    7.62746219653042    4.26047230207001
C          -1.52572481477618    6.47916569989579    5.04415971148088
C          -0.31754856905254    6.06834032126855    5.62562186215691
C          -2.74833076444928    5.80644806566611    5.21817619801885
N          -3.73877862137216    5.24762271371626    5.36361300155577
C          -2.43553980774703    8.27691951005322    3.54811085680196
C          -2.23382243567545    9.34345374668949    2.73978094356283
C          -3.23164566493335    9.98935676997389    1.95887542019633
S          -2.72753712509450   10.55678385192275    0.40158777503693
C          -4.33578197323448   10.88477706657483   -0.10924586890551
C          -5.24837609190185   10.56756762483554    0.89532854764838
C          -4.61669672469312   10.13327931742565    2.11143534941151
C          -5.43158412411494   10.00233510524296    3.27108291804388
C          -4.90122567307610    9.96824681558996    4.67614707114632
F          -3.68131633579838   10.51002880908645    4.81402797308679
F          -5.69770031170432   10.67456497421053    5.50167223892085
F          -4.83965248549755    8.73641825661011    5.21711791128124
C          -6.79623328939108   10.04675342318708    3.13491994623655
C          -7.41788199181845   10.23664836711363    1.89399255774396
C          -6.67377840714612   10.53239501141384    0.77771448623199
O          -7.17695550093293   10.77392426870732   -0.44836156190815
C          -8.57447428843032   10.72585935658611   -0.63806771009031
C          -4.54526988597408   11.46697720770954   -1.41803989850894
C          -3.78458565607936   11.04009909142556   -2.50313895614830
C          -3.93343122339369   11.61483587883808   -3.75449928939413
N          -3.09539571492432   11.06448730669560   -4.79728461029636
O          -2.78384544491268    9.89906187383946   -4.68528897145963
O          -2.73807027177280   11.78800754988039   -5.70054813239662
C          -4.87634196025004   12.63557422506461   -3.98582863232813
C          -5.61652103441985   13.06370504437480   -2.87244376123741
C          -5.44821162212110   12.51724378176394   -1.62284897594005
C          -5.10883669304953   13.22615941948065   -5.28387306999101
C          -6.29005036760097   13.76799493200050   -5.65835238962778
C          -6.47322790220738   14.34232510648273   -6.94498756363203
C          -7.66065144183691   14.82055295586595   -7.40972340794941
C          -7.91129324625142   15.40462528834068   -8.71858746476555
C          -6.97003823769099   15.82512848281812   -9.61926737395511
C          -7.27820882167951   16.40561589764765  -10.86838917850580
N          -7.46607583132172   16.87966627885520  -11.89660291228249
C          -5.57309924342355   15.78642111579809   -9.41934011407195
N          -4.42969542967667   15.81290525422502   -9.32222710859766
C          -9.35482345625136   15.52980893352073   -8.87845305434769
C          -9.98350227662411   15.14311669739747   -7.66013479395482
C          -8.96049082180778   14.72990157127034   -6.68700262730686
O          -9.15131139965562   14.37826273412325   -5.54080991264428
C         -11.34051470075865   15.16710564680048   -7.50905918328760
C         -12.14747278797846   15.57713503328928   -8.59309940249153
C         -11.52694683656429   15.95586397181528   -9.81886936078516
C         -10.11928095996303   15.92781377584655   -9.94358230254220
C         -12.34231031054040   16.35516566819393  -10.89746123722914
C         -13.70467857198149   16.38012585276586  -10.77307777319399
C         -14.31446026667807   16.00825723250651   -9.56542649585583
C         -13.55256649477111   15.61598137908411   -8.49850703010192
H           6.96825555992452    8.53010815399198    6.60845592828138
H           4.94917326227324    9.64414679717321    2.18445554752891
H           6.83652782770398   11.08880175489296    1.69333836987505
H           8.99448878533534   12.08508227449630    2.33743064495206
H          10.01206852773374   11.54482911955636    4.51447149453934
H           8.87900682273176   10.00312850556021    6.06574269250611
H           2.20956893512295    6.19529452404870    6.67269771170363
H          -0.22562023107320    5.20022289740589    6.25399024572548
H          -3.41803131685810    7.83919294241137    3.65215877458789
H          -1.21705521590984    9.67862074514231    2.57012307689830
H          -7.41919702284707    9.93865292117636    4.00932300324142
H          -8.49260411888312   10.18928415809340    1.85018241447599
H          -9.08675540881507   11.47259016897629   -0.02473506598578
H          -8.97305859354426    9.73236422115512   -0.41568280353265
H          -8.73100634478378   10.95259671314416   -1.69106041814081
H          -3.06799059852108   10.24001390664579   -2.38425604217817
H          -6.31347494458203   13.87660750737307   -2.99953754275685
H          -5.99996064391697   12.91448822607173   -0.78657470850245
H          -4.29335329929919   13.20594999803527   -5.99351432659979
H          -7.14549536488624   13.75410839205846   -4.99974941002273
H          -5.60211066438935   14.37190463654327   -7.58748288808135
H         -11.79267692909547   14.87214316174369   -6.57365203513926
H          -9.68084097670546   16.21592238715647  -10.88568799336039
H         -11.86822864441540   16.64182252312812  -11.82460051311953
H         -14.32056511358487   16.68673799877985  -11.60507674597622
H         -15.39085850405820   16.03356767893604   -9.48516919277609
H         -14.01641701909500   15.32811992216107   -7.56637659036809
