106
 SCF done       -193.713523224694          0.000563593567
C           2.87287702107579    7.89764546777040    1.09590193003080
C           1.88554789601549    8.83313080987800    1.19436675707659
C           1.92586728393868   10.10163211968966    0.57746321824750
N           1.89540921240686   11.14419237132559    0.10007442373422
C           0.73717449506608    8.66893324076163    1.99390061574846
N          -0.17127529929965    8.57045257555638    2.69080102684064
C           4.20309266780000    8.12182814507602    0.54805368883138
C           5.09054425317756    7.14472212633029    1.08957200488151
C           6.42247245462972    7.14177292985276    0.78503920720894
C           6.92967778830399    8.12066947520206   -0.09787653037221
C           6.04315845625366    9.08764853038492   -0.65619050668062
C           4.67151633447581    9.07435232000683   -0.31628877094469
C           6.56293108102942   10.05162683316061   -1.54420199133868
C           7.89278864125476   10.06345956098748   -1.86515765380009
C           8.76492477223337    9.11237413465408   -1.31396069485742
C           8.29391818272016    8.16259117721919   -0.44902749358101
C           4.33699113100493    6.20734262958680    1.93810696756152
O           4.75248769839204    5.29175316603706    2.60471071739508
C           2.89816352136465    6.58190178128460    1.72743205671683
C           1.93962498249841    5.65447594079394    1.87419952061423
C           0.60381843486811    5.71478732977425    1.24073039813326
C          -0.33934184257213    4.52899083219032    1.21883094654238
O          -0.69555346403661    3.71167138815309    2.00361322241593
C           0.58610395969585    5.66226127294894   -0.29471604148855
O           1.32961004879999    6.04440892313313   -1.13523234827222
C          -0.61850288085525    4.71272783151703   -0.29420904955999
C          -1.90704954591777    5.38964945495932   -0.56509995452194
N          -3.08849941241084    4.73336231983856   -0.75208114598220
C          -3.29099274710662    3.30427161433865   -0.76421106674801
C          -3.05360964854632    2.71157851857342   -2.15139055727398
C          -4.15899491485713    5.64541657488108   -0.96451730537533
O          -5.30197041647998    5.29378586420543   -1.15916401382592
C          -3.53290879940118    6.94123324591202   -0.87626241631731
C          -2.14513099894030    6.74198928782631   -0.61961099906593
C          -1.53065459533833    8.04252478724877   -0.53437990626322
O          -0.37693201323773    8.37061489582716   -0.32769553935834
N          -2.58194776303478    8.95184553246886   -0.72843875336332
C          -2.29988610443214   10.36816703485025   -0.71578287507784
C          -2.16577848840669   10.93525869090094   -2.12657386125250
C          -3.78137906578280    8.30438748496627   -0.94502246591218
C          -5.08430500315930    8.82194376897159   -1.20512503041385
C          -5.50817123296812   10.09657565441670   -1.32982499864770
C          -6.86605343767856   10.48977484817021   -1.62807676030878
C          -7.17509754115190   11.85043489536213   -1.67111623942315
C          -8.45159485917444   12.28875292869165   -1.97962598846893
N          -8.65626702821178   13.71249425402907   -2.05787944350361
O          -7.85635912073359   14.42110167464280   -1.48435089033425
O          -9.60127125819039   14.12145382453743   -2.69978025182266
C          -9.49233915141662   11.38585371266906   -2.25896652730312
C          -9.16929149389399   10.02297624523955   -2.20787325396293
C          -7.90245393693751    9.58378054921886   -1.90437915703295
C         -10.85147420972075   11.80108159097171   -2.52641797003080
C         -11.64706411796092   11.17844722566419   -3.41800832061784
C         -12.99424256661294   11.54309121525399   -3.72240264957110
C         -13.93141738830423   12.05480982683842   -2.88082519724024
C         -15.28094880913338   12.44330267896511   -3.26756853997874
C         -15.70662939684352   12.73376776432790   -4.53572040520568
C         -17.02089503775339   13.13881910448986   -4.85258524999420
N         -18.07394403474782   13.46440410659998   -5.17327302367843
C         -14.89988385257078   12.69715710183815   -5.69364072891081
N         -14.31016263030601   12.69942129730793   -6.67871967539179
C         -16.08080799257429   12.54768901246891   -2.05556356615858
C         -15.23455207531457   12.31811685065023   -0.93363766758315
C         -13.85829280628668   12.06182763236425   -1.39085984545618
O         -12.89506803782452   11.84995221639045   -0.68687353710322
C         -15.70916005515606   12.35034395231164    0.34641868054608
C         -17.07864568303335   12.61709982951788    0.56666385785499
C         -17.93349980337179   12.84221641093892   -0.55124927041209
C         -17.41347505803213   12.80338379153358   -1.86481708502239
C         -19.29978289414209   13.10219229612555   -0.31983563033031
C         -19.79923367874163   13.13940353002775    0.95342668711792
C         -18.95666737519225   12.91826105610890    2.05333122216769
C         -17.62544637209771   12.66353866281178    1.86425393848911
H           7.08104845852895    6.39886017576909    1.21003342642505
H           4.01532607838507    9.80770512125694   -0.75860146106490
H           5.88816226315448   10.78310223194334   -1.96381209534617
H           8.28107120116119   10.80616231967787   -2.54589848852080
H           9.81135818681925    9.13605031326070   -1.57889250761201
H           8.96049691326417    7.42772628609370   -0.02187085724474
H           2.21528243724082    4.71786339947899    2.34399845666113
H           0.03674691364678    6.60006398645296    1.55503531890871
H          -0.50299579839824    3.80523087868097   -0.89029204222048
H          -4.33214391690077    3.13876495895946   -0.47441048180776
H          -2.63819161002583    2.84272038333977   -0.01940844283433
H          -3.74583465589099    3.15223274105215   -2.86443784637479
H          -3.21834303793081    1.63827906581169   -2.12437469235149
H          -2.03868677699775    2.89981913797059   -2.49564643866627
H          -1.34362611228528   10.47881584496186   -0.19507833936443
H          -3.06702308068420   10.88772236663039   -0.13781902538986
H          -1.32793937426521   10.46168323616400   -2.63212754967789
H          -1.97702679796162   12.00374851958975   -2.07501541679005
H          -3.06597188065381   10.76085101060497   -2.71217652615703
H          -5.79938525725078    8.01708936438517   -1.31567387081600
H          -4.82407619950058   10.92239764409711   -1.21351979615654
H          -6.41475656685157   12.59314301264134   -1.47525395470418
H          -9.95340041676432    9.30372520603727   -2.38676086283216
H          -7.71045952304322    8.52293416369952   -1.88274764419428
H         -11.21361621342614   12.67484047919139   -2.00698408452156
H         -11.22870036936283   10.40093986821424   -4.04620583921069
H         -13.29823463272619   11.33087120564199   -4.74111345005509
H         -15.04648179278939   12.17450760131986    1.18083008206408
H         -18.08684369003145   12.96991402333697   -2.69057284823899
H         -19.94388543224959   13.27336189013272   -1.16981317780124
H         -20.84691643851520   13.33976567691637    1.12041365048305
H         -19.36797906760307   12.95056905239890    3.05110662178160
H         -16.97199818840424   12.49277110289566    2.70724794291245
