104
 SCF done       -219.132861152261          0.000691849283
C           2.39883422030545    1.83682808839947   -1.63263889463457
C           1.09418432799353    1.47061575767301   -1.83580398623125
C           0.68644937073487    0.14889493292894   -2.11826334350075
N           0.30414327197677   -0.90512860953364   -2.35906895219831
C           0.02947994433803    2.38829405065371   -1.87455683414958
N          -0.85023350338923    3.12676281212484   -1.90590605165739
C           3.55722229501505    0.97047552776683   -1.81061832586789
C           4.71043471528325    1.78646306610304   -2.01274370869562
C           5.94204912564844    1.24197235019616   -2.24096535696415
C           6.08015637679554   -0.16396956864057   -2.26315132925458
C           4.93511568440319   -0.98385675501793   -2.03997884458119
C           3.66998064292330   -0.39367423949996   -1.81589913221430
C           5.09051500777797   -2.38477267036776   -2.05131825881571
C           6.31604584545531   -2.95104467020724   -2.27587549526938
C           7.44162402554620   -2.14367701669953   -2.49848653932462
C           7.32629975067586   -0.77986482220054   -2.49278707810402
C           4.33150104340137    3.20340090565354   -1.90864634621403
O           5.01189587462652    4.18492838166280   -2.08356867740514
C           2.89787116719462    3.18692106458910   -1.46691810387222
C           2.36615493514538    4.30504190588745   -0.91493178544327
C           1.20407983638631    4.40043693872838   -0.10811832189808
S           0.38260149200121    5.92748359483968    0.14064159089385
C          -0.84393271407518    5.24533406101254    1.19185586556830
C          -0.56401487092563    3.91816500051604    1.36019525653312
C           0.54374107661212    3.44857304470670    0.63302119323943
O           0.67517064336957    2.12310718606345    0.88441992647242
C          -0.34451482184700    1.78052253160331    1.74220620624407
O          -0.52383092721017    0.68821864643811    2.15100834177375
O          -1.10696315946749    2.86765094997666    2.02406592142883
C          -1.83397527395901    6.06451268873576    1.83737853824445
C          -1.93456198093663    6.26788246759023    3.19278166065018
N          -1.10693699535211    5.72932599032070    4.20794924039279
O          -1.33608407478487    6.07792487267278    5.34742596580592
O          -0.20394249671893    4.98120893742482    3.87946409676839
C          -2.94007469554944    7.27321452628853    3.45752885233380
C          -3.46936476054175    7.66518385243204    2.27992951304531
C          -2.88014544423882    6.88666870180848    1.20840451529448
C          -3.28894353862856    6.79219704112678   -0.09876029683693
C          -2.67513439305440    6.01918852450636   -1.14427122895390
C          -3.15695882419526    6.44292062108303   -2.33546044611500
C          -4.13443577237594    7.48235686153102   -2.11381427159973
N          -4.84149098085641    8.02499651429499   -3.20665863518545
O          -5.41855088693867    9.09241372565174   -3.07505669709557
O          -4.82306400640636    7.38377641570828   -4.24003116513271
C          -4.32688851912186    7.64638781187791   -0.74845575460539
C          -5.37600664071060    8.27451722439193   -0.03592519908545
C          -6.04678708039989    9.40691140226228   -0.39923236093839
C          -7.15446921884846    9.98440996634177    0.25397812803343
S          -7.52312104815272   11.63069528161510   -0.14170458454147
C          -8.88169196619358   11.69700043408121    0.91842840685750
C          -9.02070646606587   10.48065272483430    1.61588876033903
C          -8.07251798777452    9.49320823392327    1.21027435135048
C          -8.17427989984470    8.19424459808195    1.73978612663988
C          -9.11202265166376    7.92560392414652    2.70190489645161
C          -9.23541240860858    6.54084057380510    3.28041307443867
F          -8.36923174297572    5.67920824279113    2.72466615184646
F          -8.98591226722807    6.52385726691478    4.60005327334116
F         -10.45679910131168    6.01990376136166    3.10770179182410
C          -9.96707784350073    8.94404964304781    3.19901880543316
C         -10.89160970871678    8.67483706036781    4.23759580485404
N         -11.65066178921316    8.49393077779341    5.07513123723830
C          -9.91834336549971   10.21020046961002    2.65854040668037
C          -9.65366393844514   12.88104663901525    0.98720782650520
C         -11.00158419465886   12.96128753201343    1.18341666674520
C         -11.76196373819306   14.18709078207158    1.35327742918496
C         -11.24923376325573   15.39785736717742    1.73883480113505
C         -12.02681100794149   16.56088867595156    1.92250854305612
N         -12.60853239909801   17.53766769564075    2.07747001800598
C          -9.88939081829605   15.62474698954130    2.03915634521013
N          -8.80030359221434   15.85744114840691    2.31798269169212
C         -13.16687586114909   13.87279372920248    1.14114511765993
C         -13.28936006027083   12.47036393245097    0.91542357123533
C         -11.96363462822591   11.84102476134785    0.95926864058954
O         -11.69827482303569   10.67311721047939    0.76794427112919
C         -14.50046373571227   11.87919430014679    0.69157611993940
C         -15.66484025812319   12.67861007170645    0.68279284595252
C         -15.54946921356555   14.08347503944474    0.89839792272947
C         -14.28256767568124   14.66739811319768    1.12827599308128
C         -16.71755949112589   14.87183650269016    0.87780551242555
C         -17.94237299989051   14.30177384900665    0.65749226847981
C         -18.05518067402953   12.91913074339999    0.44826372317539
C         -16.94078369997042   12.12422170702946    0.46140195213588
H           6.80165790657188    1.87602507477218   -2.39944959225682
H           2.82127138627817   -1.03515217144002   -1.63667059406169
H           4.22087529860342   -3.00223245498016   -1.88204586135478
H           6.42478391460743   -4.02507670593948   -2.28320692995834
H           8.40072953878167   -2.60743061150482   -2.67340847500372
H           8.18954671367702   -0.15331896686964   -2.66261670180541
H           2.93075980036479    5.22075026684241   -1.05377924516854
H          -3.16737447908316    7.63204540607684    4.44282995464761
H          -4.19080978977496    8.44560569869446    2.15178300093629
H          -1.95791907393647    5.23631224448719   -1.01286297724418
H          -2.89364361383941    6.08422953481048   -3.31233965121705
H          -5.63849420523178    7.78399411184204    0.88961316053773
H          -5.67439802962325    9.97343980027452   -1.24123382786042
H          -7.54361638339316    7.39997170991506    1.37745750875904
H         -10.55801836845174   10.98547546774762    3.04798434334642
H          -9.10836664217162   13.79632865042803    0.78714601935552
H         -14.56768498097749   10.81421762960197    0.52636492673599
H         -14.22569871503609   15.73347733762188    1.28175954310008
H         -16.62634534285205   15.93548081831086    1.04134687920517
H         -18.83134900702529   14.91402665788271    0.64385803839191
H         -19.02920846286569   12.48671492523892    0.27623464618511
H         -17.02138773745088   11.05929520206921    0.30106168026551
