108
 SCF done       -205.033610966002          0.000304516757
C           7.13896775266590    8.77792322621995   -2.91449119383008
C           6.19007640856798    9.41288804594172   -3.67376397638181
C           6.47249758129282   10.11397418739996   -4.86444442554590
N           6.63753821029834   10.69485657370974   -5.84019166200306
C           4.81619529411403    9.37869285505358   -3.38810728228210
N           3.67756909024869    9.34952263910682   -3.23020146473415
C           8.53702657559580    8.60019420251396   -3.27168897596419
C           9.06354070885926    7.50531645354154   -2.52338200699837
C          10.36005020507864    7.10194260719499   -2.66391514364180
C          11.20213128970161    7.79193909116337   -3.56534394389004
C          10.68447770950207    8.89648144901222   -4.30339105927716
C           9.33616933536620    9.28882875121968   -4.14372025958152
C          11.54080564454958    9.58274123192045   -5.18842211200822
C          12.84501965027784    9.19788614830009   -5.34069544795229
C          13.35306415113578    8.10969333132799   -4.61547021156902
C          12.54898081803704    7.42136291016927   -3.74778312995774
C           8.02025875417126    6.98167298818600   -1.62627341379376
O           8.06105737077095    6.01813919793239   -0.89786249487372
C           6.88808300923307    7.94886422312193   -1.75273391510549
C           5.95876922360913    8.01106906908080   -0.76897725250230
C           5.03849997082230    9.05086733677037   -0.44857008055053
C           5.15541911287594   10.43591010452684   -0.61306139515535
N           6.26988757618442   11.19489013219466   -0.99699904340511
O           6.11262440828518   12.39967496460234   -1.11564621809545
O           7.34079384596898   10.63407174247652   -1.19541193126484
C           3.94419751288186   11.07174240819996   -0.18409825264998
C           3.06065778760930   10.10914724449114    0.17523291409625
C           3.69784468307765    8.81926136708450    0.05265386073895
C           3.07866220444376    7.61528193638711    0.38334071616041
C           3.60934175764268    6.45687643845189    0.98487692243385
C           2.57102751731639    5.65450729402821    1.41069975325792
C           1.34014851632357    6.23328805979738    1.02453729465273
N           0.09154544649217    5.64615751846317    1.25637908491533
O          -0.91054012988968    6.23475590895818    0.86726835727814
O           0.06726069763105    4.58049828473310    1.84773649733271
C           1.60883702107120    7.42750654546859    0.32541279083488
C           0.72739458765188    8.17353741946357   -0.44268091438709
C           1.12038418922872    9.02542635787048   -1.46601715797293
C           0.33923618642541    9.94676658866569   -2.14842008057338
S           0.98038105859853   10.61264966989023   -3.62370526566532
C          -0.39849450654092   11.61529474870803   -3.88862527975828
C          -1.37016340380494   11.42323015340102   -2.87365877090680
C          -0.93760919991081   10.51143126867133   -1.86565539790970
C          -1.74041543942843   10.28703853056514   -0.74404811036630
C          -2.98550619029873   10.88804790192055   -0.67440667713841
C          -3.80901859566267   10.68566254693646    0.45898655450319
N          -4.48451434684639   10.54699479874516    1.37360665674075
C          -3.46071586598034   11.69892413174625   -1.72470676666356
C          -2.66465887766673   11.96625521108138   -2.80619329861438
C          -0.39056410116088   12.47641686849058   -5.00803555190815
C          -1.11936536067181   13.61700356803101   -5.15521144946169
C          -1.10306608429825   14.43678731061182   -6.30952164406658
S          -1.94607209983814   15.96270765378054   -6.28909034231932
C          -1.53217782570499   16.29445266758885   -7.94058035924491
C          -0.75629059902751   15.25147479588118   -8.46313107161854
C          -0.51842622121902   14.22162364022502   -7.54528965212330
C          -0.19479030213099   15.22282623968955   -9.75469175624407
N           0.31506506918067   15.14604421903708  -10.77839783812887
C          -1.98664139803614   17.49258300773540   -8.54017718463703
C          -1.97258911483579   17.77131941409723   -9.87125722606726
C          -2.44679158066425   19.01395525758531  -10.35728376515170
C          -2.62277083025581   19.31939373993902  -11.67462520059403
C          -3.04610847935049   20.59436488748014  -12.22831924079318
C          -3.32034625660022   21.74295794875956  -11.53123417788604
C          -3.71933544461145   22.95703016131693  -12.13057138737794
N          -4.04887489695984   23.97347327933350  -12.54982359906721
C          -3.25019818691575   21.89339505846971  -10.13049066126138
N          -3.21824388440825   22.09659506410744   -9.00043978218149
C          -3.11797644771232   20.44723473111608  -13.67720310320079
C          -2.75051419066480   19.11477408615980  -14.02221988880916
C          -2.44024416541008   18.35671616391268  -12.79991306568992
O          -2.13796021964877   17.18618682286523  -12.72550576221561
C          -2.73185905255839   18.68216756158878  -15.31705023862789
C          -3.08714119537269   19.57954543563227  -16.34840296485733
C          -3.45594266744751   20.91474992913469  -16.01279296107596
C          -3.46514133217997   21.33400782204935  -14.66307555608253
C          -3.81206698771223   21.80180457497433  -17.04927366143257
C          -3.80593923591232   21.39115406345250  -18.35450150312700
C          -3.44315816695355   20.07633682348127  -18.68359781322714
C          -3.09077208283723   19.18991391597623  -17.70211091023967
H          10.74270246763268    6.27010550160498   -2.09128394023235
H           8.97081083761220   10.13955099001133   -4.69767769779018
H          11.14447171477361   10.41878930607505   -5.74552911377049
H          13.49303729154922    9.73031952975538   -6.02064563938354
H          14.38508220796789    7.82049715243693   -4.74645498704149
H          12.93565289845702    6.58363425821708   -3.18604905751459
H           5.96232949539346    7.15694799522805   -0.10206788724931
H           3.81415646686495   12.13596492312196   -0.15271339613595
H           2.08835088743559   10.26404531753091    0.60017182020540
H           4.64355328029647    6.27538542380571    1.20192256104214
H           2.65496710379215    4.73151106919838    1.95394727463130
H          -0.32470568749146    7.96959690867310   -0.28925392158443
H           2.13010888399546    8.92123200650889   -1.84796276481630
H          -1.40708669004896    9.66392926924737    0.06912308095667
H          -4.45671568440605   12.10967815545066   -1.65974994305366
H          -3.04472852824051   12.56828671558116   -3.61442023860055
H           0.32495594928137   12.21876762319939   -5.77772714763108
H          -1.72622676734490   13.97713841218335   -4.33767898938507
H           0.05813004797935   13.34767387316313   -7.78971799034083
H          -2.41533015743207   18.21990998404010   -7.85989102521162
H          -1.61914519573162   17.04419357997514  -10.58700494691337
H          -2.67939845758346   19.76181049694022   -9.60969501881078
H          -2.44968557049678   17.66609742028077  -15.54959617296513
H          -3.75088203798910   22.35043142741794  -14.44413944161395
H          -4.09057789823906   22.81292415865466  -16.79098205923341
H          -4.08094571156743   22.07757708962310  -19.14113525330059
H          -3.44446740525866   19.76948577280412  -19.71874446314882
H          -2.81047670680288   18.17653313094856  -17.94930171225098
