103
 SCF done       -193.797064398155          0.000887050469
C          -2.42741784954817    1.23777609110173   -1.75264283109370
C          -3.31749674971788    1.49649160580919   -2.75845968104410
C          -4.38125849828828    0.63575930445890   -3.10168821763053
N          -5.26188452727472   -0.02930358132088   -3.41570014304169
C          -3.21932670500416    2.61219599562173   -3.61444675704003
N          -3.14240138712297    3.47924389804233   -4.36370263655870
C          -2.32066617136129    0.00711015421573   -0.98639383824803
C          -1.02294731608057   -0.05347757369381   -0.39504686756302
C          -0.63538497596392   -1.11750917456767    0.36850909625048
C          -1.54356912174362   -2.17817026397180    0.58450819865490
C          -2.84657740436169   -2.11360545180619    0.00949863764683
C          -3.22029587938493   -1.00382922632716   -0.78117029727293
C          -3.74585569676363   -3.17384645102588    0.24372500871310
C          -3.37804318126677   -4.24845457650837    1.00650070439777
C          -2.09477481264781   -4.31250806719135    1.57025318657080
C          -1.19738252042519   -3.30026148098114    1.36332362902360
C          -0.27479432476751    1.17069008577451   -0.72391943293191
O           0.87192043046792    1.45256480606785   -0.46723847940600
C          -1.27087361375207    2.04817172925768   -1.40897484607945
C          -1.08635663195412    3.38375106590020   -1.47372190839683
C          -2.06740961092813    4.38792232772357   -1.76188586392116
C          -3.32998257609337    4.56165006681929   -1.21826575190244
N          -3.99894055731185    3.77600355803547   -0.26462447270751
O          -3.50387441966694    2.71161324839473    0.08273926672765
O          -5.05336733765007    4.20408306259137    0.17120502037533
C          -3.90215435350439    5.78942179987120   -1.71781572975828
C          -3.00356333027833    6.38374616252657   -2.53317426003484
C          -1.82095525418935    5.55960166012768   -2.60439833433076
C          -0.74409319933611    5.71985515778395   -3.44852596833181
C           0.08849955734374    4.67632833662811   -3.95080932951904
C           0.76279317709646    5.13659028259525   -5.04315784109220
C           0.45719281683429    6.52075932662713   -5.23776025399720
N           1.02226151640019    7.28023418804427   -6.26574535865439
O           1.83295470277660    6.73174283387737   -6.99439103491287
O           0.67491965593311    8.45033100736287   -6.40729980956080
C          -0.41307839181469    6.93971262528539   -4.22331933306394
C          -0.75241244569091    8.26789973484110   -3.95010378922062
C          -1.22226244687346    8.79081224789165   -2.76864357989016
C          -1.56376097088489   10.14708945824860   -2.64269161667658
N          -1.51756128196960   11.02781690563060   -3.67975173809247
C          -1.94084967055270   12.24923071400497   -3.29130491866677
C          -2.28581876126307   12.16124420670833   -1.92498323152845
C          -2.05026349614996   10.86446010398962   -1.52474228801982
C          -1.99882547445875   13.34070004417316   -4.21311486163839
C          -2.46941946061798   14.60594347173526   -3.85480864244982
N          -2.66025163536563   15.60102075763665   -4.69516324835490
C          -2.36484382595992   15.48003594802289   -5.98462489098629
C          -1.72181271080539   14.29046011937602   -6.46525722740624
C          -1.57807561387479   13.19546087371529   -5.57246852138570
N          -1.03606220713827   12.03984751984913   -6.01473230771611
C          -0.63323114856200   11.96717836636466   -7.25616585343418
C          -0.72379621348332   13.07937120324666   -8.11530721222788
N          -1.25077024438668   14.20659963170080   -7.72017088105056
C          -2.75704655278710   16.57619821879352   -6.81776202824307
C          -2.79608341595002   16.56293528069557   -8.17385458051704
C          -3.25351761867235   17.68103421763630   -8.91595568860992
C          -3.40507620291411   17.69325040153231  -10.27164224540196
C          -3.87859091419159   18.80033648555549  -11.08710474535332
C          -4.19808844160110   20.06158059555312  -10.65608476673940
C          -4.65068788029954   21.09607308868970  -11.50317614094077
N          -5.02320723303560   21.98129243666076  -12.13189349461369
C          -4.12271204198537   20.52573232385836   -9.32574353336407
N          -4.09059528307405   20.98719691178411   -8.27461607079446
C          -3.94775191671049   18.33923266278106  -12.46904692618685
C          -3.50549472510029   16.98664194087582  -12.52211822112770
C          -3.14341193563184   16.53154838898210  -11.17049977243032
O          -2.73280293427203   15.43204601142968  -10.86619874810224
C          -3.46270000799069   16.28483443163962  -13.69261826746656
C          -3.86997336916300   16.91467466204221  -14.88919223409320
C          -4.31637218929109   18.26738212300406  -14.84563702237348
C          -4.34824011683882   18.96877239872232  -13.61880341950533
C          -4.72431278025388   18.88614806914271  -16.04507224830952
C          -4.69325749754421   18.20341099053345  -17.23049401848959
C          -4.25311231729984   16.87178988976604  -17.27198159827564
C          -3.84997229018294   16.24110745911128  -16.12629361648833
H           0.35097943085194   -1.14905511170242    0.80726118999226
H          -4.21679728055403   -0.96851603046184   -1.19291664674461
H          -4.73169275904128   -3.12024543867853   -0.19407539983380
H          -4.07400760455119   -5.05544786101864    1.18021214910458
H          -1.82153653845111   -5.16754563258622    2.17036050853696
H          -0.20859062673698   -3.34448480868225    1.79600305875495
H          -0.08879450981432    3.74175220981234   -1.23376869294322
H          -4.89101022109717    6.12077667683972   -1.46613953260438
H          -3.16673592615919    7.26262181892948   -3.12408716784763
H           0.07329105972072    3.66145274148439   -3.60627695798585
H           1.41738601202624    4.57837659969453   -5.68618598744265
H          -0.52979511416614    8.95319102895298   -4.75763405762637
H          -1.32348014899614    8.17230648373322   -1.88896972769930
H          -1.18698379434821   10.88841410325911   -4.63676962617016
H          -2.66099943131770   12.95899219133802   -1.31615574512771
H          -2.20950300817085   10.45216020914674   -0.54811358918116
H          -2.73918007781418   14.81665634794798   -2.82926839784773
H          -0.20528236922148   11.02344308276550   -7.56592059100269
H          -0.35029635983918   13.04909560955208   -9.12867504264680
H          -3.10157122272754   17.44572443714647   -6.27100544249886
H          -2.48785710796501   15.68225988916443   -8.71679541391807
H          -3.50784635195577   18.56767482098406   -8.34872765547181
H          -3.12275125207390   15.25983962024185  -13.70370184376250
H          -4.69330350287337   19.99028589235746  -13.62187799212502
H          -5.06221165521569   19.91137648160574  -16.00843432836053
H          -5.00795390149435   18.68587466832321  -18.14361460577678
H          -4.23539565944531   16.34838588408901  -18.21615220363972
H          -3.51044026431066   15.21599925534831  -16.15176953203592
