104
 SCF done       -191.163100188335          0.000707133607
C           2.60059102583870    1.63008546089525   -1.89279213879436
C           1.89984118286447    1.00092915549228   -2.88836473101950
C           2.44404944138925    0.00100385220580   -3.72298846291031
N           2.82119654379897   -0.81379697447026   -4.43802303257821
C           0.54214977800104    1.21047784466391   -3.21204799388531
N          -0.55816270305428    1.30049468267681   -3.52932241821107
C           3.97298672959034    1.32137598547722   -1.51233456467063
C           4.29012414328126    2.05705970939526   -0.33644399563667
C           5.51086785772272    1.96596769960231    0.26817542054921
C           6.49406124422925    1.12069060788792   -0.29188193445253
C           6.18807075130580    0.38526916614875   -1.47352574968130
C           4.91336051067570    0.49821325960640   -2.07425639484385
C           7.17759806125769   -0.45319406226500   -2.02618937373941
C           8.40981942145585   -0.56150602489837   -1.44114305378220
C           8.70989283154253    0.16333420149036   -0.27800166493194
C           7.77230590874223    0.98629544327509    0.28470086721303
C           3.13474122034195    2.87521360933469    0.06382874233386
O           3.07265683315890    3.57931198526931    1.05002251111203
C           2.10495488145115    2.65898017152707   -0.98651958287615
C           0.94730899909138    3.35151824095571   -1.19831039396095
C           0.31214890449266    4.36827634242624   -0.44825387085077
S          -1.07886555061528    5.13613984051317   -1.18766356896381
C          -1.31315756440005    6.17919287874645    0.17051985597673
C          -0.35138938727238    5.91055493876946    1.16032943432300
C           0.54861107428278    4.90050050792504    0.80670401265316
C          -0.27199407066732    6.56225956512918    2.40309231276480
N          -0.18371226875069    7.07145990318732    3.42805049845262
C          -2.35454542987529    7.13523661205448    0.12930463004907
C          -2.61674751423939    8.05473251478316    1.09820086621087
C          -3.64563965833855    9.01650586200956    0.96747893356334
N          -3.92576861176070    9.96678518493820    1.92112133815751
C          -3.30467998270169   10.09458619373086    3.21829169302849
C          -3.82177566894680    9.05077017503921    4.20439129151578
C          -4.96469072992683   10.82932865458977    1.51943082562252
O          -5.38401755136072   11.74587794295205    2.19279816546400
C          -5.32951722471739   10.34728362064986    0.20456586250624
C          -4.51534708207609    9.23474175772246   -0.10334293057009
C          -4.89327913755961    8.77512814348920   -1.41872381711123
O          -4.49147801657097    7.85602317884396   -2.10602692620263
N          -5.92390006309671    9.64800385284043   -1.82325991889925
C          -6.49979282662342    9.49466280270622   -3.13750506356525
C          -5.91816968892161   10.49330839959707   -4.13570532248762
C          -6.18450318189886   10.60368906011746   -0.86525348906312
C          -7.09973502059672   11.68805017162473   -0.86197225312114
C          -7.99215066061943   12.07366872001467   -1.80618644667376
C          -8.82509791937487   13.22244639652948   -1.68546866279823
S          -9.92182897235548   13.59968101204805   -2.98715416828913
C         -10.48322492295613   15.01399071139049   -2.18014671572990
C         -11.40552302915291   15.95831537649011   -2.84733727546810
O         -11.33608499913314   17.14711030987048   -2.68362906809595
O         -12.29863963907048   15.41925559458212   -3.68361859797115
C          -9.85363142979981   15.18539241273887   -0.95696738271539
C          -8.90922269435797   14.17346779380039   -0.69393791915476
C         -10.11013366697914   16.27516809875827   -0.04137123328760
C         -11.32226244439056   16.79212788043753    0.24708418215339
C         -11.59822704674435   17.97313969635395    1.06069669240038
C         -10.68790889855365   18.72476728809689    1.75031079527264
C         -11.02019093483937   19.86584919790773    2.51366147032924
N         -11.22223108228522   20.79469112079776    3.15668731934312
C          -9.30157818830140   18.47037044963191    1.83059849427586
N          -8.16915445692769   18.32669682009036    1.95310190584955
C         -13.03126601749675   18.22390726895006    0.99768162575147
C         -13.65026438360556   17.17978920875283    0.25175786239132
C         -12.63099100892725   16.23469840875717   -0.21157062169147
O         -12.81961017592839   15.19294041232952   -0.80577686271633
C         -14.99674487463742   17.15516127113442    0.02061205055621
C         -15.80074828397982   18.19987282241991    0.52505235549978
C         -15.18974643299623   19.25174210866722    1.26833169568307
C         -13.79559474777450   19.24606382770005    1.49833831461472
C         -16.00128926372092   20.29405295770187    1.76166967753014
C         -17.35006379486055   20.29950782674339    1.53193642980340
C         -17.95040776902363   19.26328668158853    0.80043415516421
C         -17.19258259726850   18.23582614503075    0.30807755993648
H           5.72308426508232    2.53422262036555    1.16165173225454
H           4.71682635560293   -0.06796969759635   -2.97054701477313
H           6.94166833040837   -1.01003231075618   -2.92113288525406
H           9.16077768381901   -1.20667630427653   -1.87183006266450
H           9.68757417861036    0.06639989695653    0.16978545281297
H           7.99722707731859    1.54675163416117    1.18029375027230
H           0.41577433643705    3.11936875785791   -2.11412099687820
H           1.35196843057965    4.57242483998281    1.44172615463604
H          -2.96717381575048    7.12422435400668   -0.76367344217102
H          -2.01824361203372    8.08073159877108    1.99539166399631
H          -3.56054663240527   11.09621505773740    3.57488988888612
H          -2.21850375478229   10.02208479451877    3.11599787246616
H          -4.89796923937094    9.15055253998882    4.32387462393435
H          -3.34793913656263    9.19702841852817    5.17057272474786
H          -3.60013223656631    8.04340687424791    3.85956824049719
H          -7.58786378175512    9.57061563323757   -3.07482900400516
H          -6.24284956425668    8.47930462447189   -3.45528176023714
H          -6.06417617144141   11.51808411413230   -3.80183475081518
H          -6.39422012575299   10.36655218127583   -5.10414297977453
H          -4.85117100611933   10.31842000764227   -4.24864894088924
H          -7.02967102085697   12.26856850370543    0.04865708913162
H          -8.11443528335236   11.52375413748073   -2.72569169876359
H         -12.33932734949060   14.45510274165052   -3.62023530605779
H          -8.32602911229524   14.14325083754818    0.20840605325025
H          -9.22547745839625   16.67586283327626    0.43598306061925
H         -15.43906787537782   16.35238082569846   -0.55039037918351
H         -13.36522022544127   20.05883322989091    2.06127618673726
H         -15.53481907817626   21.08972867130548    2.32365842589601
H         -17.96262206020655   21.10330004290486    1.91186378643233
H         -19.01616150967194   19.28421957635920    0.62865447046374
H         -17.64875868207033   17.43598902701202   -0.25659420195602
