100
 SCF done       -200.757493225557          0.000772265616
C          -0.48667893905626    0.15546320687896    0.61553261881296
C          -1.80900848110577    0.39917981563673    0.35251970997198
C          -2.87394235857737   -0.29899801105266    0.95946344143016
N          -3.77470275222713   -0.82259843225836    1.43973236704279
C          -2.24188955723068    1.32597660047202   -0.61325652953529
N          -2.62448593919798    2.05860168159173   -1.41048122473588
C           0.03026711469474   -0.94968799988894    1.41174909323702
C           1.39373183897470   -1.17049048074844    1.05395960089429
C           2.12909162612397   -2.17357335111125    1.61754817002881
C           1.52819210227776   -3.00694013898062    2.58743341225039
C           0.17045795066254   -2.78153097145730    2.96020182527467
C          -0.56969586135978   -1.74040201096924    2.35525925903582
C          -0.41389222023966   -3.61610223798801    3.93457507536827
C           0.30536505208142   -4.62667229103430    4.51247934781800
C           1.64091064425346   -4.84855694126553    4.14419878771205
C           2.23917276232996   -4.05657485423436    3.20174160047122
C           1.80389574315620   -0.17256626431822    0.05467639990301
O           2.85066761761000   -0.08198288975232   -0.53897924682690
C           0.64484628191240    0.77469395543470   -0.04613543874118
C           0.85872755677065    1.99755444510193   -0.58654757798775
C           0.08454658188390    3.18677629406524   -0.48116733026619
S           0.37692360246956    4.47625278427913   -1.60684750119213
C          -0.77099612384578    5.49481303563204   -0.81610265020825
C          -1.05602316231208    6.87772680736722   -1.22590178139134
O          -1.71231360984281    7.62198174231424   -0.54283115648812
O          -0.55554178009756    7.27695394983050   -2.40006324532521
C          -1.33518148512802    4.86389565437354    0.28441041176135
C          -0.84507894048075    3.56136351614322    0.46376033704512
C          -2.27132741638661    5.53556949406010    1.16938311177320
C          -2.01421921795456    5.89130004331683    2.46624780462509
N          -0.84340380735352    5.62761926331710    3.21045409220977
O          -0.79305965346309    6.06148803754156    4.34392230059503
O           0.04643500969658    4.98195582025664    2.68057481759860
C          -3.10218955978332    6.70628564916733    2.97214288624593
C          -4.00793469080688    6.85891397268608    1.98667028587183
C          -3.58334017201250    6.10955720658097    0.82135245075144
C          -4.24000644664108    5.91467028718150   -0.36702281616099
C          -3.79783537357548    5.07442653956251   -1.45097488104719
C          -4.49182618045342    5.39497296081931   -2.56533757828640
C          -5.43246081402214    6.44436449205249   -2.24660275537922
N          -6.38363604223886    6.86547045594735   -3.20206031164496
O          -7.21056891954239    7.70578919277974   -2.89455487523841
O          -6.33541671699788    6.32547858228453   -4.29257982401025
C          -5.36890435683202    6.72688349961877   -0.89194868879679
C          -6.20135748734880    7.57278090865948   -0.11495206222569
C          -6.67218832557526    8.79564211984325   -0.48292796970953
C          -7.54427520727319    9.56496269516000    0.30570985747070
S          -8.33668533642925    9.00124122555533    1.73273301382073
C          -9.24459971929555   10.46991023087122    1.94979368342259
C          -8.86847670695549   11.41194262652093    0.98476372155196
C          -7.93772451494985   10.89392782279617    0.03041447388652
N          -7.48235505969724   11.61339109359391   -0.99866377603360
C          -7.92728520388280   12.83902578495001   -1.08572319413693
N          -8.66929669218064   13.47778338392519   -0.18063251519755
C          -9.11917554768930   12.80535342009716    0.85437269394457
C          -9.77314841629846   13.54275889733732    1.87944327778203
N         -10.28212612142680   14.12738371168128    2.72285199317811
C         -10.17958559252160   10.53744673416962    3.00730642529357
C         -11.33243029955277   11.26709284392110    3.01371450997196
C         -12.21289687593367   11.48975622565822    4.14468129440213
C         -11.95041977433054   11.17147592750434    5.45192223110069
C         -12.83475488933624   11.42900059664325    6.52099785357737
N         -13.51346352501261   11.59625148381083    7.43109445802626
C         -10.77080115133769   10.55060560563578    5.91237378779013
N          -9.83526018919872   10.05068295050486    6.35250424237305
C         -13.39537385135883   12.18617555079257    3.65601251354075
C         -13.25743620815018   12.39248317942483    2.25289663494191
C         -11.98425909996877   11.82856226905843    1.79546170432565
O         -11.57981720486256   11.75704242820625    0.65291445230479
C         -14.21103444528916   13.03831390363215    1.51894811728787
C         -15.36749769844419   13.52245842625717    2.16888116744131
C         -15.51642316678086   13.31656139862963    3.57155696026312
C         -14.51369662169718   12.64000307317797    4.30380078025977
C         -16.67593718688687   13.80212747440821    4.20907478002978
C         -17.64156894896412   14.46195206029226    3.49799536228574
C         -17.49307602951476   14.66549048096360    2.11788595423530
C         -16.38002937827215   14.20584173860001    1.46723486465712
H           3.15765376382287   -2.32892795318376    1.32806954268793
H          -1.59215334377289   -1.58420906901389    2.66273948381262
H          -1.44303711403278   -3.44343849012711    4.21292275959205
H          -0.15125667518270   -5.26104789112612    5.25708547949082
H           2.19363176601891   -5.64955746289128    4.61143626973783
H           3.26702141762449   -4.22257194856061    2.91463725779729
H           1.80127731676891    2.09926129618086   -1.11734847490428
H          -0.04723729103149    6.59516779335991   -2.86117628011331
H          -1.13346363226741    2.93691467176327    1.28929074827376
H          -3.12067786844914    7.11305203800255    3.96491976092039
H          -4.90880038267690    7.43048761565695    2.05963036949794
H          -3.07668695977743    4.28680106026393   -1.36820705581733
H          -4.40990211957548    4.95638892584853   -3.54154609806595
H          -6.48247817244130    7.19215835059012    0.86005870282740
H          -6.35392524805179    9.27019172927079   -1.39928546674296
H          -7.62096646307329   13.41980836256287   -1.94422079471469
H          -9.95749576359079    9.90190295681439    3.85571286559627
H         -14.07930870904766   13.18361653737382    0.45707064432198
H         -14.65797761511794   12.49860203738401    5.36312804741962
H         -16.78562583788708   13.64480873836130    5.27196515868121
H         -18.52535052636150   14.83157505573733    3.99588695941522
H         -18.26460560517561   15.18832538958319    1.57287685186924
H         -16.25965936637486   14.35968987216094    0.40497818265272
