115
 SCF done       -207.381076555501          0.000753823040
C           2.67609364290393    4.53037889954628   -5.51315649399300
C           3.42719526007820    3.44494927841720   -5.14565809699853
C           4.39499857345429    2.83863301714531   -5.97488161763837
N           5.20035674656537    2.30486490230727   -6.59465038804344
C           3.33541521338543    2.76300871647905   -3.91418959166830
N           3.31112174347417    2.15124601892971   -2.94242148110217
C           2.73755991104252    5.20298282717950   -6.80647376420901
C           1.72905718122488    6.20871063708507   -6.84432433108353
C           1.54722719632178    7.01364405157854   -7.93177785743253
C           2.38965361165336    6.85206046723043   -9.05408517526466
C           3.40307035372795    5.85061733444577   -9.02542950351522
C           3.56209693041066    5.02772291062682   -7.88621994747644
C           4.24167668497107    5.70232849464866  -10.14866098564471
C           4.08953296205957    6.50481419165743  -11.24685219159205
C           3.09216565630091    7.49086502335580  -11.27327089938858
C           2.25924924531035    7.66010461189740  -10.20043584670458
C           1.00075392416941    6.21011249701619   -5.56958583361383
O           0.05307008354200    6.91504888697127   -5.27371179227116
C           1.65733678707909    5.20015430464681   -4.72074016117631
C           1.41994483794246    5.00964966283194   -3.38867162442564
C           0.49856422186783    5.65062376197737   -2.53405633488117
S          -0.74217282060143    6.79458019513092   -2.97371854125217
C          -1.22414376848664    6.98064685879798   -1.32292553967494
C          -0.44980756306437    6.17675334232298   -0.46792082743599
C           0.49687018757071    5.42530120655511   -1.16016914462848
C          -0.61686516548848    6.08497295810287    0.92450568131165
N          -0.73596451161909    5.99148518770313    2.06238375668897
C          -2.26469890423642    7.88936092583463   -1.01151594373414
C          -2.52178253748847    8.38601277785365    0.22816969954872
C          -3.57387991528553    9.30035676014229    0.47515147824525
N          -3.77567297164747    9.92360712039413    1.68287091075879
C          -3.01007156695435    9.73268293425102    2.89222668588105
C          -3.37661939292020    8.43422526536184    3.60642493303698
C          -4.88830803061926   10.78962114708535    1.65269485945198
O          -5.25177394646086   11.45461209462156    2.59733444000311
C          -5.39223682127316   10.66312958888696    0.30042542299231
C          -4.56909393461304    9.74896053415528   -0.39536172400434
C          -5.11326085469147    9.59893804716567   -1.72488809777005
O          -4.74037099148477    8.95731032169367   -2.68734314691195
N          -6.26984416366652   10.40526359805553   -1.73191195518436
C          -7.01200502034740   10.56843233604884   -2.96101610749875
C          -6.87530103646521   11.97355875741811   -3.53844613979127
C          -6.43907081449669   11.05565423189778   -0.52983150249195
C          -7.46476320725453   11.95246674375275   -0.13060327913016
C          -8.70556169427173   12.09194022216999   -0.65778445473685
C          -9.67195149566354   13.01168847104961   -0.18431441592001
S          -9.33017716793709   14.33094487553766    0.91835803536467
C         -11.01028735599539   13.03624475964520   -0.52191128406132
C         -11.91844734232727   12.25359749272990   -1.37228089813315
O         -11.69149938154313   11.30564927739088   -2.08394991745408
N         -13.16004903652885   12.85841228797778   -1.20995156352036
C         -14.36661000824298   12.36885510887403   -1.84244118940570
C         -15.13445316484953   11.43436029908065   -0.91409166561415
C         -13.14768463868228   13.95387044419600   -0.34981682967872
O         -14.10550604968851   14.63169237407453   -0.07719363216889
C         -11.74703243056862   14.06196720058466    0.09446263608882
C         -10.99684758855757   14.88986530405886    0.90456787102628
C         -11.43488391953634   16.04176812439758    1.59876347765703
C         -10.59887009265051   16.93310855842768    2.19065633806193
C         -11.07169663671336   18.10689510058865    2.82449266132448
C         -10.26957091898956   19.12030828348563    3.26244972262441
C         -10.69377995910517   20.35361354162905    3.90212791114749
C         -11.93468762460649   20.62439451036723    4.41634678207830
C         -12.27936484274293   21.83772095226133    5.04878762994898
N         -12.62409731303459   22.80294406149807    5.56581698741154
C         -13.02750403454377   19.73180307020013    4.42470715833344
N         -13.95526440917686   19.05817685061331    4.48666832018709
C          -9.54134658685510   21.24600053352959    3.95500869096149
C          -8.40431362448955   20.55113227566935    3.45256833845232
C          -8.79801011738476   19.19383234486997    3.04026422080238
O          -8.06990928223090   18.33440151833667    2.59097649380010
C          -7.17428613676055   21.13841303909524    3.37587381426956
C          -7.02289347259621   22.47749405250407    3.79893556613294
C          -8.15637391451554   23.18218730732771    4.29821166989807
C          -9.41641703655048   22.54527576384566    4.37159662813356
C          -7.99540925478732   24.52083771002562    4.71027474971161
C          -6.77540936648273   25.13550145526032    4.63219930878577
C          -5.66034824218441   24.44072244296124    4.13995356493538
C          -5.78122613233462   23.13966909237142    3.73326833775388
H           0.77390951222494    7.76738288606182   -7.93279364261673
H           4.34176891996013    4.28290027265006   -7.89604115042419
H           5.00808143294968    4.94166894559455  -10.12435900470558
H           4.73793599190015    6.38408119741192  -12.10159239972936
H           2.98717171119108    8.11592512190217  -12.14734624529173
H           1.48925909653741    8.41752486123255  -10.21446012997212
H           2.04579999150836    4.29126475022281   -2.87232144243104
H           1.17401989920807    4.73820552268674   -0.68227927848471
H          -2.86493942218198    8.22058677827924   -1.84974604321125
H          -1.89510598657861    8.10602143213846    1.06101128161799
H          -3.25113888739416   10.58449729366114    3.53461459471937
H          -1.94222240948139    9.75720728630281    2.65809632375659
H          -4.43985370982817    8.42242851943538    3.83362913318235
H          -2.82118820314271    8.36268625104266    4.53704843176456
H          -3.13888555280464    7.56550503209915    2.99721091973954
H          -8.06178185424007   10.30607852197016   -2.80916078971759
H          -6.57687754498951    9.84279761293477   -3.65541757721702
H          -7.28273397010826   12.72015872833868   -2.86116227063366
H          -7.41078730797165   12.03102934094020   -4.48185424326818
H          -5.82752789745870   12.20220774108622   -3.71889375498556
H          -7.20841759900233   12.53384416647561    0.74799305823162
H          -9.06241329169897   11.45800526785305   -1.45646462337004
H         -14.06360812495701   11.84309667663943   -2.75088040140942
H         -14.98075711568701   13.23505031922646   -2.10038821132532
H         -14.51877596247691   10.57827026737795   -0.64709668925904
H         -16.03212283435111   11.07827243957554   -1.41116896812470
H         -15.42220918620075   11.96094321323337   -0.00713710277050
H         -12.50580864754726   16.20735340482406    1.59064801685151
H          -9.53023774440865   16.77079334728540    2.15317685745384
H         -12.14573454000688   18.20176322033350    2.92574791123604
H          -6.32831163203529   20.58814401144188    2.99141022651630
H         -10.25534995164679   23.10818945588276    4.74878087741712
H          -8.85638977705172   25.05165660005220    5.08923735349032
H          -6.66272237371717   26.16143459216636    4.94918108519063
H          -4.70548946157479   24.94172914624766    4.08424798855801
H          -4.92660830941377   22.59923363999897    3.35321684402524
