116
 SCF done       -207.621634120594          0.000409533080
C           3.45509640863014    2.32282487649568   -2.22388478503288
C           4.09722655019203    3.52905072218616   -2.14650353684388
C           4.83912019696359    4.09472359158279   -3.20467063782972
N           5.44908293731603    4.60125008911931   -4.03418899198580
C           4.18647699833149    4.29026955594390   -0.96225660162854
N           4.33229937491958    4.90534494046280   -0.00417530718050
C           3.60271155052511    1.35843196508960   -3.30858108053655
C           3.24387904805158    0.06698358983771   -2.82034108389759
C           3.33654448362404   -1.04684044087724   -3.60496760832131
C           3.78878090975095   -0.91546465187947   -4.93701031276383
C           4.12853305313446    0.37561468155706   -5.43654283433757
C           4.02876986096901    1.51120314742252   -4.60020032587827
C           4.57072285412649    0.49248597523780   -6.76995002106860
C           4.67706222751472   -0.61118360378431   -7.57169000921741
C           4.34414250819313   -1.88182998626329   -7.07865008236105
C           3.90955078425002   -2.03069688751042   -5.78962993763251
C           2.77811014354423    0.18112209347443   -1.42814095216270
O           2.43914238901471   -0.69890828059731   -0.67338466521633
C           2.74092313157735    1.65130048934151   -1.15383555820432
C           1.97882815802015    2.11447237203250   -0.12849371442041
C           1.50327252610676    3.43347450541684    0.06575528868843
O           1.60532129525095    4.37039135610172   -0.89051811019491
C           1.07484059213563    5.52467526090237   -0.42757975586599
C           0.58961730785270    5.32915306443592    0.85797305532170
C           0.85065114014559    3.98691543134773    1.17727239105989
C           0.53416855691257    3.32300330054540    2.37221119560969
N           0.25848404678118    2.78682860753204    3.34664633674199
C           1.15504981821513    6.65295718236977   -1.27958960737892
C           0.76330587667136    7.91187873021209   -0.95437864941410
C           0.94898553586900    8.99653606525374   -1.84415434153415
N           0.61326097749540   10.29601933084992   -1.55680033852767
C           0.07042816243748   10.79618318090208   -0.31674456061080
C           1.14990414488256   10.94819674964327    0.75209903756077
C           0.93823723082994   11.17073477812993   -2.61003242793641
O           0.72735443632077   12.36522197925748   -2.57464656499168
C           1.51169270591028   10.31165617015238   -3.62441131201047
C           1.49808274261569    8.98906513508395   -3.13130526168729
C           2.06491881556170    8.12750220048436   -4.14890636079491
O           2.25168073645509    6.92658114749382   -4.18507380834360
N           2.39729032794487    8.99759294043521   -5.19533283407927
C           2.98106841508415    8.50082867812178   -6.41857636093285
C           1.94149489071556    8.35991757937657   -7.52778916123657
C           2.07481269864870   10.30562481494469   -4.90774110771748
C           2.30955395477183   11.38603452040588   -5.78036192687853
C           2.01910332098938   12.67891668971700   -5.44433864868301
C           2.23778487103378   13.79773259186108   -6.27386073505400
C           2.01160918537018   15.11540570515406   -5.91049633932947
C           2.32769734574904   15.96693962197370   -6.99850774101740
C           2.77508598771355   15.08108168750215   -8.09200736353075
C           2.72828627626516   13.79948246603326   -7.64642693675318
C           3.21658448281359   15.46188215445112   -9.36477685762341
N           3.59564844966939   15.72178219510714  -10.41739510367074
C           2.24691718662603   17.34463322096935   -7.04587398111571
C           2.46991179108795   18.19199839156632   -8.16386375911532
C           2.29466880320864   19.50925986955112   -7.77789515505127
C           1.96063423720226   19.51317350747911   -6.36037150088298
C           1.91207919603405   18.23142880071243   -5.91508328916097
C           1.62134744328153   17.85461727329265   -4.59906457455762
N           1.37818262047077   17.59354554263222   -3.50720229981505
C           2.39534525752724   20.69089979657478   -8.54875253048982
C           2.57130552895153   20.73429099022394   -9.90082160921577
C           2.65606448763861   21.96355833952129  -10.58799612646079
C           2.74832997230046   22.09847308358009  -11.94629622649729
C           2.86123336735004   23.33679879217585  -12.69246323362112
C           2.95614579476981   24.60536371497743  -12.17722129116779
C           3.07269545349577   25.77179946298221  -12.96209187241674
N           3.16881468772665   26.76113013463445  -13.53682390017345
C           2.95920191269640   24.94250712523295  -10.80803129538379
N           2.97022196258820   25.30406663522298   -9.71764366660316
C           2.87407804044309   23.00187641675017  -14.11275053538725
C           2.78849468912320   21.58699757022015  -14.24881419536253
C           2.71041176018366   20.96829950837989  -12.91469103031301
O           2.61642890812767   19.78480816892568  -12.66989249183084
C           2.77665088846277   20.97681556893805  -15.46961962972385
C           2.85026280491794   21.76978896080707  -16.63647372270229
C           2.93540550224244   23.18644838591764  -16.51040811170395
C           2.94645008160463   23.78939859133158  -15.23164061764908
C           3.00646105807751   23.96893700073466  -17.68096986771609
C           2.99345449148996   23.38214127132404  -18.91703262314159
C           2.90905516802377   21.98715260860401  -19.03980788000570
C           2.83938155103391   21.19807104663217  -17.92377173975995
H           3.06855523439312   -2.01703380976328   -3.21390071221244
H           4.28128984645225    2.47914822524021   -5.00423052227310
H           4.82923051334692    1.47226128974995   -7.14376774219321
H           5.01935748936748   -0.51155901498677   -8.59082630183942
H           4.43370291629296   -2.74178338420660   -7.72526383168108
H           3.65185003689106   -3.00631007176568   -5.40435957931539
H           1.62976848872598    1.37826282416087    0.58706641197846
H           0.11263433653077    6.05087767576140    1.48862563721759
H           1.60419217937683    6.46201737279662   -2.24594176575244
H           0.31890167737411    8.11106499797255    0.00935215272528
H          -0.72987359273644   10.13401033167115    0.02454143202338
H          -0.35657387607554   11.77632697539668   -0.54669369266892
H           1.63231060055579    9.99565859652072    0.96053936326631
H           0.70821360523119   11.32707196712970    1.66938083050558
H           1.90668841802032   11.65225431650039    0.41552275239757
H           3.39740924837017    7.51853024389901   -6.17814879841503
H           3.79656787894118    9.16030314326379   -6.72751097582737
H           1.16603419959975    7.66155578451464   -7.22280421528145
H           2.41476208281650    7.98089763112572   -8.42927454860323
H           1.47464519776342    9.31662401366289   -7.75223344596218
H           2.75025853755389   11.16665847238604   -6.74185902002337
H           1.59353410078440   12.88591731442429   -4.47104426551778
H           1.64490936893475   15.43879555298072   -4.95604893738018
H           3.00256022139240   12.93029156637633   -8.21474603772273
H           2.72896285849057   17.84874958863121   -9.14594794613970
H           1.77716075349600   20.39862533885005   -5.77971306761989
H           2.30294410084835   21.62621758762803   -8.00755843591923
H           2.63391943611692   19.82185469463143  -10.47414165010910
H           2.63979204518957   22.85741918517917   -9.97675182475267
H           2.71097290268380   19.90138776101379  -15.54269266070529
H           3.00977244685739   24.86420251388127  -15.17264656404118
H           3.07145511095978   25.04255244558988  -17.58141015176281
H           3.04806473309126   23.99013514124016  -19.80762591298863
H           2.89946789078330   21.54103326025560  -20.02306772743380
H           2.77434394067123   20.12342062782043  -18.01162653146366
