112
 SCF done       -221.790350893221          0.000809305933
C           7.05280456303450    3.38223705752758   -0.32250926373202
C           7.92025775281139    3.63888538782460   -1.34927477187607
C           9.23040208084820    3.11976014395488   -1.42682834370187
N          10.30135955769405    2.72551148540489   -1.54633632281315
C           7.59872583859527    4.41396155124338   -2.48356397424202
N           7.37692515944823    5.02188568982268   -3.43203061493492
C           7.30260687309194    2.52857570398754    0.82953946872663
C           6.09035317781937    2.37144213271228    1.56504047341465
C           6.03189601914939    1.62022798972860    2.70343581946958
C           7.20370676822132    0.98427448440661    3.16998934502706
C           8.41935718902946    1.13658331206827    2.44075304474765
C           8.45037924531407    1.91828501969864    1.26451518919855
C           9.58163639233379    0.49465841147544    2.91566421483199
C           9.54742373384662   -0.26089041048554    4.05574549264424
C           8.35090447817149   -0.40880509795694    4.77378910162974
C           7.20443412056030    0.20011440085017    4.34046301396689
C           5.01347881427652    3.11337542345038    0.89577571828204
O           3.82359398083015    3.05776800600057    1.10115889650084
C           5.69428311290750    3.88561083579009   -0.19210098212153
C           5.12042840196075    4.91379544484105   -0.85075232758991
C           3.83893765469240    5.48133603179491   -0.54120864513041
C           3.34737086152280    5.92807696521975    0.66844986078291
N           3.96533716067108    5.90184853560221    1.93511094252978
O           3.33914369890716    6.37236165101456    2.86589191633299
O           5.09464054164698    5.44839872110258    2.03445287618829
C           2.07151963131064    6.57209611571703    0.45763337194701
C           1.80437558625360    6.58179199880394   -0.86924834378896
C           2.87762780037711    5.91497689586808   -1.56402240891255
C           2.98669775910908    5.62404239112316   -2.90480324542097
C           3.71103398195709    4.52915451646030   -3.45810918711355
C           3.40133545634039    4.43039658068037   -4.77854358655616
C           2.53355247229769    5.51280152236758   -5.15515246865347
N           2.07925263922815    5.60077297139283   -6.48247226218320
O           1.19873550092944    6.39885879726652   -6.76911461332404
O           2.58089242043913    4.83850532841385   -7.28982244119603
C           2.29185441313670    6.31119746466159   -4.03447609385817
C           1.77672149128508    7.60598190773683   -3.84796841610456
C           1.25143998582129    8.44687158641507   -4.79370641066309
C           0.79211665835773    9.75174093188737   -4.53324007883956
S           0.23001214606135   10.69598149833564   -5.90254210268890
C          -0.20923508242903   12.03154190950652   -4.88414102957915
C           0.06176284959239   11.74986246349223   -3.56856447242341
C           0.65030505931773   10.49157394985610   -3.36782651548722
C           0.94211838581106   10.28220986332204   -1.91902999269795
C           0.82011120147739   11.70221970417451   -1.32970249780858
C          -0.10653940807855   12.48086106201024   -2.28072113680449
C          -0.78255741519472   13.22424666399572   -5.47634634742134
C          -0.09529655453096   14.01192506982523   -6.41346605833898
C           1.33724683354789   13.81456525755630   -6.73098770840426
O           2.09358606775118   13.03776238864966   -6.23187979128326
S           1.82696481836734   15.00463745992692   -7.97547904305779
C           0.20258101414397   15.76764313762149   -8.03438945284338
O          -0.06133582496559   16.67229655680703   -8.76648262023856
C          -0.68513483068999   15.09441202630989   -7.06119900637531
C          -2.02034426849671   15.48362221442453   -6.83511187425303
C          -2.67491745747390   14.74036425809231   -5.84113501226004
C          -2.07717498474202   13.66579045233646   -5.18956915670376
C          -3.06098139394917   13.13077068309754   -4.21629187537539
O          -2.97401269558080   12.20261979997858   -3.47471189409654
O          -4.16939245597910   13.93058280698917   -4.28681465203073
C          -4.01375592883376   14.93223028313714   -5.22003882841447
O          -4.83679091784693   15.77184031384392   -5.39405296167657
C          -2.65018913991829   16.55148950585329   -7.57428342869420
C          -3.90020799351911   16.45811022803950   -8.06914159960114
C          -4.49011371673102   17.50883596410022   -8.83078409708354
C          -5.65992834837666   17.38680386144935   -9.50919883746934
C          -6.34150039632314   18.42006669784697  -10.27940993584394
C          -5.98945403382578   19.73994730173957  -10.36503019355578
C          -6.69827345095122   20.69985789464195  -11.12089566894643
N          -7.22163257164185   21.52668098651250  -11.72007674134823
C          -4.89444624602201   20.34559438627943   -9.71105254779895
N          -4.03639847728617   20.91721583657367   -9.20641639935905
C          -7.49508485303124   17.80585114006435  -10.92335229065464
C          -7.56458668381801   16.43707156426490  -10.53368526924795
C          -6.44278088408941   16.11834897717236   -9.64036091948027
O          -6.19307160208158   15.04168816253940   -9.14388882933765
C          -8.55007375359875   15.60577949424153  -10.98531642178902
C          -9.52888300683869   16.11298586349396  -11.86729779330830
C          -9.46548419420851   17.48053083176249  -12.26538998403729
C          -8.43571322693859   18.31749082598349  -11.77975057824955
C         -10.44504188132636   17.97579038489333  -13.15052482281096
C         -11.43880272772986   17.16122605217833  -13.62085224324432
C         -11.49991324323087   15.81532082888770  -13.22838396389730
C         -10.56575564675157   15.30230514592572  -12.36985248666977
H           5.10373970047396    1.51849048498930    3.24555438181997
H           9.38619718310048    2.02210778983874    0.73798974579965
H          10.50003461818782    0.61145421588786    2.35928597871081
H          10.44255634119723   -0.74863896577506    4.41143205545144
H           8.34265116844297   -1.00766257084994    5.67214472643549
H           6.28081442600210    0.08978072766958    4.88933760851615
H           5.64365125493362    5.38931701238448   -1.67173935998040
H           1.47002134632155    6.95831094074407    1.25811094583172
H           0.88983785869563    6.90601567542070   -1.32617221394052
H           4.28793440283410    3.82623894619977   -2.89059145257019
H           3.72597791887443    3.67498402890857   -5.46957027776142
H           1.86620298547808    7.98728891870973   -2.84324738574790
H           1.15964200972995    8.11000481990896   -5.81680452717506
H           1.92793034711620    9.85668299261040   -1.73351796547196
H           0.19263385427997    9.61410472424187   -1.48578656351641
H           1.80482276005153   12.17099893278583   -1.32178206690547
H           0.44271250725399   11.68906270106233   -0.30960467934851
H           0.15077196422940   13.53746994360092   -2.34711470825272
H          -1.15046385221161   12.40041143954629   -1.96583016119380
H          -2.03911444488601   17.41491119466197   -7.80275990244518
H          -4.48044589769187   15.55725958432414   -7.93738843759109
H          -3.94812748413176   18.44522272663017   -8.85776737809269
H          -8.57861019994112   14.57224313119199  -10.67357287639634
H          -8.41514107205925   19.34575710650481  -12.10367023678997
H         -10.39428854602578   19.01232082391683  -13.44969349103417
H         -12.18390004209219   17.54946009357949  -14.29874629055121
H         -12.29073268687957   15.18727488001362  -13.61009158624341
H         -10.60735447516110   14.26718805677916  -12.06429874210555
