112
 SCF done       -207.350199221465          0.000903521832
C          -6.02820239644360    8.43372081112238   -9.64040849626603
C          -6.80205903148940    9.55041934353351   -9.78057453237987
C          -7.78477939730929    9.71501112668065  -10.78065246945081
N          -8.59178791417787    9.90126052163838  -11.57437379450024
C          -6.68351168394070   10.69205099602777   -8.95839820485159
N          -6.59438001243678   11.65227715005544   -8.33680289650893
C          -6.03385718170620    7.25288812718349  -10.49328129622999
C          -5.02047693015026    6.34798465208385  -10.05202740267357
C          -4.79424456763244    5.15676691797598  -10.68219750815119
C          -5.58366140747703    4.80687366743222  -11.79938258604639
C          -6.60073445965782    5.70219701834446  -12.24346298298946
C          -6.81269018714449    6.92821408853938  -11.57353973712124
C          -7.38389598871759    5.34047009860421  -13.35858051376963
C          -7.17368764928873    4.15293177107353  -14.00539494872150
C          -6.17222103785500    3.27289937089633  -13.56781208529435
C          -5.39404385915763    3.59256335567188  -12.48825566212746
C          -4.34462082397597    6.90989279227312   -8.87973393795664
O          -3.43700803049494    6.44761270072601   -8.22159026227148
C          -5.01339227463032    8.21530512904580   -8.62054541642721
C          -4.68717621492094    8.93639711927127   -7.53040214808746
C          -3.67792094049140    8.47135426828314   -6.59802237871589
C          -3.98958335041170    7.88290535368648   -5.40016639688554
N          -5.30498871455517    7.64195247139637   -4.97634414181494
O          -5.47561335397283    7.12346908211110   -3.89092406472634
O          -6.20321531644492    7.98131224777989   -5.73660956370922
C          -2.78064972835759    7.48252055238776   -4.70920898962197
C          -1.73145616774468    7.87997953338755   -5.45329455286216
C          -2.21278597696772    8.56313795035005   -6.64493080716267
C          -1.47601473969579    9.19178697114316   -7.61272825536829
C          -1.92620372649799    9.54372794647225   -8.93615514799336
C          -0.84541097746876    9.75568588590908   -9.72101084745822
C           0.34691888876102    9.66059622233175   -8.90957955366486
N           1.63258254669341    9.90990641061193   -9.42416912358079
O           2.58449926313403    9.87638600893410   -8.66033747064875
O           1.72099065977608   10.13785877276810  -10.61707634012902
C          -0.00699998938017    9.39653935717064   -7.60067322126272
C           0.84361808741535    9.44910018364811   -6.46239523533151
C           0.43215424801776    9.86007098270115   -5.24340958863432
C           1.26559727884227    9.93354842299519   -4.05895157052973
C           2.60748068315575   10.02406216104403   -4.13617553503868
C           0.57136660083700    9.91848555582247   -2.78098814770152
S          -1.17279927923223    9.95629406389404   -2.69725085955302
C          -1.16016503200296    9.90366880673120   -0.97294168681366
C          -2.45297327044161    9.86202358464551   -0.24283872265088
C           0.12669866738552    9.85099272646053   -0.48341764853067
C           1.09426945646018    9.84481179610088   -1.52298967770789
C           0.52561058453010    9.78511805703962    0.90478213076783
C          -0.13407905068247   10.31866616953084    1.94298294212180
C           0.30733920216018   10.25546206478291    3.32165018741659
C          -0.14201960554189   11.21793701705354    4.22754339112553
C           0.27522682962713   11.20992140121987    5.54586416676801
N          -0.09381339412961   12.36089404739463    6.33996738935010
O          -1.19137355813383   12.83413651907187    6.15110609955032
O           0.74402322912437   12.81482542547654    7.08872102480237
C           1.11932290259967   10.20312155722049    6.04245900231554
C           1.57876605995225    9.25591664546707    5.11936162678779
C           1.18947393101566    9.27876934340091    3.79933138884752
C           1.47939178719697   10.05801738837359    7.43517750560081
C           0.67370540946978   10.32971159975899    8.48270597040405
C           1.11619264179037   10.15306066868484    9.82223014809149
C           0.36874290864876   10.42749184655041   10.92452386915426
C           0.79842468510636   10.33473487293695   12.31078019504714
C           1.91061721329312    9.68673041503141   12.77892387004248
C           2.26308034865899    9.60736402016624   14.14294830457330
N           2.60689359762690    9.50891505631978   15.23370120142028
C           2.83194354386245    8.97518912142317   11.98192851652580
N           3.61158121121237    8.36275948285819   11.40231626424226
C          -0.20325199222155   11.00628262811743   13.12873862901751
C          -1.28671036889443   11.40120750015724   12.29215401391409
C          -1.00850193851891   10.99819317325506   10.90299983877641
O          -1.75226015959566   11.10081750429677    9.95246507604194
C          -2.37695756827279   12.05768464622911   12.78600690394190
C          -2.43266513268566   12.36033779758008   14.16484904513739
C          -1.35153904188082   11.97171272888560   15.00814999105796
C          -0.23698160394106   11.29023754542673   14.46897874531033
C          -1.41698793691956   12.28107141694173   16.38224335885587
C          -2.49682561807611   12.94269079705525   16.90001380668417
C          -3.55999170183697   13.32611282079653   16.06859306499864
C          -3.52885234353210   13.04076953223266   14.73051087460848
H          -4.02171456034214    4.48920172760808  -10.33041988119969
H          -7.59130034589409    7.58342013631554  -11.93110885762296
H          -8.15339752228557    6.02086570283764  -13.69206907635701
H          -7.77843369250196    3.88485624249037  -14.85845891533269
H          -6.02060168496593    2.34042587102336  -14.09022261179260
H          -4.62193575958066    2.91904110823806  -12.14663665058383
H          -5.21048272690392    9.84930223235265   -7.27377090842037
H          -2.77820676700168    6.93930886149086   -3.78444139719803
H          -0.69805371139889    7.68749469805209   -5.24824371688609
H          -2.94914103659248    9.54558741551734   -9.25193138914812
H          -0.82517933933425    9.97857321560582  -10.77112619247126
H           1.88777313667278    9.23035600263695   -6.64120421625456
H          -0.59950587880944   10.16021692414468   -5.11201315398227
H           3.11194457006242   10.07514928298464   -5.08370826423473
H           3.22486578919658   10.08969271858339   -3.25951499115767
H          -3.22736076902278    9.42592029804313   -0.87100999908756
H          -2.77743703034979   10.86661440606538    0.03362017658934
H          -2.35575006794561    9.27045676637715    0.66597954822367
H           2.14838536648933    9.79769017591794   -1.31749501911171
H           1.47970222885472    9.30153609900911    1.07061790153439
H          -1.02759533708251   10.90040732176615    1.77158950698958
H          -0.79584236711877   12.01292680029376    3.89844418145992
H           2.23427557812063    8.47253426716796    5.46945767870447
H           1.55417935599749    8.51547538396846    3.12972935487165
H           2.45417514156039    9.62380571202852    7.62265817494053
H          -0.33698757689590   10.68330746401310    8.33984604670981
H           2.13854733120898    9.81927907206669    9.94829773198318
H          -3.18515217145942   12.34669434609767   12.13067755722287
H           0.56884930179426   11.01620898794110   15.13140315050049
H          -0.59614133362659   11.98340913821240   17.01814054773840
H          -2.53777102287326   13.17490922751050   17.95366094582423
H          -4.40349872169434   13.84907968688260   16.49387919314685
H          -4.34419822760220   13.33381782641743   14.08547141763845
