98
 SCF done       -194.325119827414          0.000820709847
C          -7.65013272978724    6.71464946653268   -7.04331131407972
C          -6.31471314355454    6.77503247551271   -7.34204591958915
C          -5.78606977253486    7.50887406123918   -8.42310863780349
N          -5.30689969609747    8.10914475309886   -9.27571842945438
C          -5.33675019494624    6.03503786524474   -6.64604130777789
N          -4.52750938083104    5.41446452825482   -6.11898734734893
C          -8.73194495266499    7.20733912395999   -7.88576226304893
C          -9.92831815636236    6.51196239981484   -7.53846896400271
C         -11.10234103418431    6.73520415525448   -8.19909352245965
C         -11.13466338537614    7.68340239717080   -9.24644377206350
C          -9.94531765368876    8.39161284585353   -9.58722857630648
C          -8.74238212137956    8.13764641102448   -8.88972391057197
C          -9.99288313627644    9.33669605549513  -10.63209953970026
C         -11.15704869206899    9.56996138717656  -11.31219920062646
C         -12.32708365893273    8.87212598158256  -10.97686279505700
C         -12.31627050787615    7.94927561972573   -9.96625180567354
C          -9.65558923688578    5.59706346740067   -6.41648503012006
O         -10.40353060481072    4.80843160681521   -5.88906108826689
C          -8.25099378940508    5.90208495811009   -6.00361977389090
C          -7.81539047672951    5.51953609109899   -4.77817195908561
C          -6.73002919762072    6.02943982789006   -4.01502902164857
S          -6.08677988209880    7.63788198470228   -4.23278991561807
C          -4.97618227743832    7.44667695927649   -2.91963018622323
C          -5.11480930240077    6.17795596702711   -2.34469430947757
C          -6.11520282535194    5.40327453230882   -2.95426018126146
C          -4.35417319207142    5.70409232346218   -1.26462741046434
N          -3.73895519993029    5.31376342796205   -0.37611024187437
C          -4.11481476923696    8.52229603576660   -2.58495796712559
C          -3.23954076295197    8.50751626067395   -1.55117776547168
C          -2.38793145959280    9.57323492517622   -1.17427311413240
S          -2.34931159273818   11.10694503021409   -2.00751964283966
C          -1.21157230337514   11.73080682936160   -0.91781463083950
C          -0.84007799060125   10.82146156808758    0.04119901480961
N           0.21895619326280   11.11319523689551    0.94924309394255
O           0.60626713288771   12.26029712301951    0.99643086712162
O           0.69010007314011   10.19252105523362    1.58620747253669
C          -1.52046118610703    9.57201098135703   -0.08474795178445
N          -1.35177971036780    8.48500681618936    0.74034081377730
C          -1.33114003289854    8.55575452762060    2.10432843980711
S          -1.94172962918619    9.93221977182280    2.95670463101641
C          -1.59116365647898    9.16092685983892    4.48784873694766
C          -1.06066825523532    7.87838823269584    4.28747447814334
C          -0.91428776982191    7.53650582544821    2.94625954143719
C          -0.35705640201860    6.23032840327688    2.46894727853375
C           0.39268156654701    5.53718339069838    3.60974384761431
N           0.70856125735305    4.15007775212236    3.15728302915179
O           0.08794371460978    3.24950960126632    3.66226234382671
O           1.53289459157730    4.05038974988220    2.28876577462607
C          -0.47035069121036    5.52503236788121    4.86164008117612
N           0.17659156219090    4.73179626787610    5.95141533801817
O          -0.55434270963430    4.27785818313515    6.78691936169329
O           1.37882195836841    4.65768828426283    5.92788444396935
C          -0.64452892746332    6.95351045057843    5.39080525089651
C          -1.77511164699859    9.73276465152396    5.75179878904086
C          -2.30543995716895   10.94822304194690    6.10515920346572
C          -2.45328638186272   11.44914813238010    7.45884211467287
C          -2.02366407498156   10.85332618010047    8.61753292181289
C          -2.20196365151588   11.40634217263271    9.90295152017133
N          -2.31688165113022   11.79925059656607   10.97558209182930
C          -1.34670030326917    9.61962451152226    8.69876157534304
N          -0.79425345866683    8.62048661741825    8.83008359886767
C          -3.14363595054464   12.73299568306318    7.37613527619584
C          -3.39209552710365   13.02700953393395    6.00403951006808
C          -2.86793391409406   11.93221912539720    5.17826657082496
O          -2.91204861399077   11.85608867258446    3.95886225863402
C          -4.03046373371072   14.16767093157799    5.61146155481349
C          -4.46399208409709   15.08579240074471    6.59412256381214
C          -4.22309202897977   14.79933649953628    7.96858572748727
C          -3.55491986120611   13.61013631037803    8.34358100045607
C          -4.66420862308316   15.71922373461328    8.94082824668529
C          -5.31307776325145   16.86756374633443    8.57507684477143
C          -5.54914121580001   17.14884705572700    7.22150703110102
C          -5.13292706362806   16.27702265044287    6.25180273018135
H         -11.99622118429274    6.19328702292220   -7.92822110155629
H          -7.85739460687526    8.69300085041235   -9.15936896243410
H          -9.08861815440153    9.86867243161254  -10.88875565226065
H         -11.18250784056003   10.29314635398985  -12.11338428638400
H         -13.23692044799567    9.06919812393420  -11.52356023181147
H         -13.21414256593397    7.40905370034395   -9.70432861570137
H          -8.42922787679651    4.77809694035955   -4.27489827213532
H          -6.35715640096109    4.40203372630457   -2.64402684256566
H          -4.18630419009772    9.40266574207124   -3.21021820609489
H          -3.18548378887530    7.62586319721253   -0.93102613553279
H          -0.82016446697936   12.72373020711164   -1.02514709056104
H          -1.49381639030840    7.57137306433970    0.32960162378073
H           0.32562608437663    6.39362864971261    1.63222001153464
H          -1.17436552744767    5.58597084388225    2.12238388141639
H           1.34831244053960    6.03780328736851    3.79555237056278
H          -1.44390369288320    5.06351104387943    4.66964711191429
H           0.30582309485216    7.30262481966145    5.81075654608057
H          -1.37797324458581    6.94755629023355    6.19987562624978
H          -1.44634645349491    9.10064125004362    6.56453834865688
H          -4.20450544464169   14.36677563478188    4.56442499961367
H          -3.38971839947195   13.42411366820462    9.39268280815875
H          -4.47972489151735   15.49870629238911    9.98191306206756
H          -5.64788458118769   17.56548786779219    9.32766584589362
H          -6.06240658739036   18.05932433277355    6.95051479673499
H          -5.31168337770345   16.48831020688974    5.20760089094560
