118
 SCF done       -223.408853025227          0.000795461800
C          -0.78926294198877    1.32027581287759    1.00305525026847
C          -0.74877874033798   -0.01084196227527    0.69490946727645
C          -0.18437442092325   -0.99931756207958    1.52876501324898
N           0.25694831053242   -1.83868806557430    2.17455047124031
C          -1.21454303644560   -0.53787997073752   -0.52908100215605
N          -1.53741909311319   -1.00041022983562   -1.52827966083676
C          -0.20202571131795    1.96566744205375    2.16740602198953
C          -0.29046892335928    3.38051415993593    2.00325911351287
C           0.19421389249492    4.24373133098997    2.94516360196390
C           0.79245695304694    3.72454937983722    4.11443922533610
C           0.87561237243338    2.31198761148127    4.28875339488430
C           0.37043578203089    1.44175492483845    3.29634152640415
C           1.46607725139980    1.80618457539943    5.46457214824926
C           1.95228424303245    2.65295228753834    6.42343262234819
C           1.87111887223528    4.04294262490418    6.25064588077087
C           1.30446327825768    4.56748272552766    5.12067686402739
C          -0.97983204559645    3.68846653743556    0.74373425533085
O          -1.25158365026663    4.78051956649994    0.28984641993970
C          -1.35229114989556    2.36656874169855    0.16597439446358
C          -2.23920538051004    2.24488749202111   -0.84737493044075
C          -2.71296879419411    3.37054516781133   -1.59909662526222
C          -4.01710127140162    3.80803403004973   -1.66640047366499
N          -5.09987583185612    3.19008102590828   -1.01766516806662
O          -6.21362428585264    3.63576556571753   -1.21496449709921
O          -4.84951648125486    2.23555385766935   -0.29602520072141
C          -4.07798493345308    5.04085321416875   -2.41156085849484
C          -2.81423468834894    5.38311356805976   -2.76283703886011
C          -1.90368423752221    4.36261328560982   -2.30737566478469
C          -0.56164461475807    4.23765971965825   -2.58897638515540
C           0.19431034447975    3.02451394757553   -2.64908115212270
C           1.42733194097035    3.30859106602809   -3.14451004956043
C           1.52984040856840    4.72620919710936   -3.37529816253393
N           2.76307899693848    5.32430248739423   -3.69174390915649
O           2.83348186884783    6.54152239216133   -3.75250129547453
O           3.71416774743625    4.57954841251846   -3.85506691248473
C           0.32430132007001    5.33079832802609   -3.03218001251830
C          -0.04819799955106    6.68860491995916   -2.90142319642005
C           0.34279579593345    7.71807385387692   -3.70578236744983
C          -0.00284222060382    9.08001658424936   -3.57478818900422
N          -0.45210032934131    9.77124739532165   -2.47230512817504
C          -0.52150341655652    9.32539216388374   -1.09730521623725
C           0.84911460926098    8.94727297574834   -0.54642957056588
C          -0.67608397439092   11.12929245051301   -2.76780858038612
O          -1.05100043756631   11.94258701432020   -1.94724506801996
C          -0.36817181243895   11.25635413488262   -4.17743946842651
C           0.05324438421186    9.99670208361631   -4.63370899332350
C           0.32953816237426   10.09484712028959   -6.05567359397945
O           0.68001611869750    9.27958534062938   -6.87519672460571
N           0.06186639644110   11.45003986381991   -6.35921084215801
C           0.27980887549591   11.97641014728995   -7.68636938412589
C           1.59847245691080   12.73846783301958   -7.78164851214328
C          -0.35177958728779   12.15180290908933   -5.26020487495991
C          -0.70825518412298   13.51860454416986   -5.29031352069869
C          -1.08491931699357   14.19327384504793   -4.16869307025256
C          -1.46254651146891   15.55567215814422   -4.14122026812959
S          -1.85915491276864   16.26017010362439   -2.59254140304735
C          -2.24032501939768   17.81121780507834   -3.28797960956343
C          -2.02869419281710   17.77164959383799   -4.65209276334024
C          -1.60406548210155   16.51755117868080   -5.14060531729137
C          -1.42057501217890   16.58626054278976   -6.59515630892027
O          -1.01125608798798   15.73009940714860   -7.34311045326741
C          -1.84228467120583   17.98501605891703   -7.00913756258753
C          -2.02448609276688   18.77880346757095   -5.72693961733716
O          -2.07259683620022   19.97622775737057   -5.62750575732815
C          -2.66260202868482   18.89761136138526   -2.47156703160320
C          -3.54469627852156   19.85504923128174   -2.85587426636488
C          -3.88487898716170   21.05996701854795   -2.11721512584923
C          -3.17018985826833   21.59591515568058   -1.07962762380672
C          -3.51543409272666   22.79436910335387   -0.41867171794905
N          -3.75227983719238   23.75329342237995    0.16558400664382
C          -1.98585294715687   21.04411580259112   -0.54604581445620
N          -1.01478113063615   20.65523247601400   -0.07334056067396
C          -5.06304134333933   21.64569183211863   -2.73925835361820
C          -5.42224281621691   20.85660285279637   -3.87020836118068
C          -4.49104154683828   19.72954587073425   -4.00825292938132
O          -4.54436039165374   18.83947950162600   -4.82833396623980
C          -6.49276137080574   21.17236015390212   -4.65821653133619
C          -7.26406577228373   22.31392531997128   -4.34803820793856
C          -6.91491948072047   23.10458223274930   -3.21427355881470
C          -5.80391074109476   22.75189133363802   -2.41507346555987
C          -7.69539234465963   24.23865392978320   -2.91064399985017
C          -8.76785751525742   24.57887732849418   -3.68952837832266
C          -9.10990530406182   23.80100733733952   -4.80608128675304
C          -8.37406878289844   22.69303549397345   -5.12864840151855
H           0.11821990337838    5.31144750749675    2.80187814326615
H           0.43937880055741    0.37740318604628    3.45746214643298
H           1.52710604230402    0.73559022799930    5.59256366753189
H           2.40209699007184    2.25606137181170    7.32090893026744
H           2.25902796475868    4.69600600939638    7.01779227177278
H           1.23875915969370    5.63680162929600    4.98321261395934
H          -2.69379487676074    1.28632640081627   -1.06935899633725
H          -4.99094596402543    5.56516225075764   -2.61966332044399
H          -2.53183836411922    6.21144675162518   -3.38352220230199
H          -0.19529350521051    2.04917851596469   -2.42892989055332
H           2.22990614299237    2.62269651607157   -3.34038368086295
H          -0.75993877603564    6.86842816823767   -2.10853388403551
H           0.91577898548306    7.50703839999728   -4.59817631040301
H          -1.22721991577568    8.49695337740341   -0.99940480669578
H          -0.92225313459725   10.17762615515688   -0.53951450461132
H           1.29772591888115    8.14056172582156   -1.12044824361587
H           0.74709253721051    8.62528173768557    0.48586411153835
H           1.51557908343030    9.80578680855405   -0.57955125349157
H          -0.55597728938938   12.62148934114734   -7.96764347462885
H           0.30461648559403   11.11068645568892   -8.35376386648085
H           1.59807720709360   13.59922039887453   -7.11733794991762
H           1.74266692851313   13.08738370490784   -8.79980462284851
H           2.42782248715466   12.08799771711412   -7.51463940154414
H          -0.67751611261788   14.03242694467079   -6.23994001566635
H          -1.10226928774128   13.67922941730784   -3.21544933588744
H          -2.80545515422952   17.93020571727217   -7.52427782128451
H          -1.13511083272854   18.44893607967202   -7.69811536257276
H          -2.25094509517824   18.91847927128509   -1.47013786947847
H          -6.74464777299143   20.55947170058704   -5.51087968519418
H          -5.56920153824874   23.36566083924300   -1.55991122731847
H          -7.42720380442951   24.83521573001655   -2.05120253048415
H          -9.35870944839996   25.44998717246146   -3.44968144864780
H          -9.95951438861050   24.08413705404688   -5.40905433285872
H          -8.63296785609369   22.09063301558324   -5.98695158111520
