97
 SCF done       -182.828362166663          0.000353789824
C           3.72825448780049    4.96566960945249    2.28428645902713
C           3.61059548587577    6.21285236703267    2.83718136482071
C           4.60719759774403    7.20607228819287    2.74364022414875
N           5.38478558329538    8.04789157638723    2.68472863140251
C           2.52522958109005    6.60618668177051    3.64760509516784
N           1.68369520810476    6.94571978045503    4.35070945162274
C           4.93887950795317    4.40895440764791    1.69520566562957
C           4.84721508331310    2.98582244371788    1.73266605257719
C           5.86663842549423    2.19158155595884    1.29175689240435
C           7.03734826757461    2.79377346078336    0.77839011940870
C           7.12626891717407    4.21534354302730    0.72134303427298
C           6.05755486184780    5.01379633026433    1.18860301798866
C           8.29802810209233    4.80234455810843    0.20195276634705
C           9.33549030244781    4.02500070508736   -0.23571514870423
C           9.24815899100337    2.62592271145870   -0.17728896212077
C           8.12382870269522    2.02355660598341    0.31858838182953
C           3.54091566036305    2.59079471861923    2.28925863556213
O           3.12877804622679    1.47975910272243    2.51923433638144
C           2.78689821926329    3.87340949867268    2.44669239342360
C           1.44145006909970    3.86208926682557    2.59993152094526
C           0.52689753079709    4.92873335537874    2.38259919577998
S           0.77249063036891    6.20060808496271    1.19612985013841
C          -0.69390840636860    5.11745313341344    2.98261896631711
C          -1.47613846694342    4.43993924624144    4.03048465248634
O          -1.25403864680122    3.42401682644601    4.63629856760776
N          -2.61135267977516    5.23017147687750    4.17801416582836
C          -3.64335746252988    4.94699618114927    5.15269982681181
C          -3.33349576745361    5.60871515107107    6.49067358886394
C          -2.63651814251872    6.34226106662630    3.34987308239278
O          -3.53367474414894    7.15512711087036    3.33129873054783
C          -1.39526136350188    6.26820545276283    2.56318138975781
C          -0.74969336050941    6.98220416555027    1.56904164096350
C          -1.11407525818899    8.15388202985682    0.86056607672313
C          -2.22277246003842    8.87744180926901    1.14658634681443
C          -2.59516618396739   10.04627068035128    0.43877294238972
N          -3.70154219289303   10.80373030106439    0.86055525167312
C          -3.77960314698282   11.81933515188257   -0.01048874494746
N          -4.44607790115537   12.93040032163031   -0.36849212892536
C          -3.78341736096653   13.39112148133708   -1.51554048721629
N          -2.76411735694408   12.63478968066365   -1.86444708467733
C          -2.72563168442479   11.64612554448583   -0.94626894726825
N          -2.01398105954083   10.54762224160861   -0.63498966940943
C          -4.20216017760517   14.55354434939400   -2.21521387915417
S          -5.47222569946122   15.57876366370217   -1.61100675855232
C          -5.34310043066463   16.63891100678916   -2.98403117979099
C          -4.34706446212978   16.18470261046628   -3.84970428024216
C          -3.70345313633983   15.01723403066694   -3.41107103699466
C          -4.02414989282164   16.85723930616751   -5.04291024353195
N          -3.75148291551801   17.40632334303160   -6.01134655010667
C          -6.16860332066139   17.77230741088886   -3.16176833798321
C          -7.01537130025902   18.25080734109089   -2.21463011981473
C          -7.86890683163955   19.37342955140090   -2.36271797702859
C          -8.47641523068445   19.80666198657694   -3.50596067932722
C          -9.29347573320357   21.00201490438144   -3.61371268772502
C          -9.22651404256549   22.09614195601269   -2.79125439859569
C         -10.01862284158982   23.25168034292198   -2.95142861110456
N         -10.64358650426154   24.21157783730881   -3.02811584327321
C          -8.33390026035407   22.22631798635814   -1.70652348087902
N          -7.62265699023133   22.40486852398662   -0.82279924431944
C         -10.12640568617789   20.87052395482820   -4.80056992119936
C          -9.76674798163085   19.66646063953920   -5.47054470290032
C          -8.68552661952630   18.98874906023703   -4.73351794023202
O          -8.14473425490473   17.94958832617366   -5.04471201753294
C         -10.38565232644637   19.26931093839853   -6.62069912109733
C         -11.41472770280904   20.07264874119333   -7.16114630012913
C         -11.78371615643885   21.27646751001320   -6.49369806022220
C         -11.12234485277254   21.66357750657963   -5.30558742259893
C         -12.81700161998645   22.06549709059333   -7.03859897676238
C         -13.45642228849385   21.68566695332468   -8.18723129767672
C         -13.09213664780685   20.50064991275450   -8.84375824890773
C         -12.09215132398376   19.71209308212254   -8.34247618228525
H           5.78287612060760    1.11593155162584    1.33683537143484
H           6.14426042357156    6.08745153634885    1.12627649565054
H           8.36178852324057    5.87977877139854    0.16248368748803
H          10.23012807333973    4.48407489467318   -0.62878040711910
H          10.07623266089480    2.02794128394260   -0.52715423664695
H           8.05121390182113    0.94691034636178    0.36599927305671
H           0.99269907115843    2.91360371407248    2.88099076165870
H          -3.69261035067245    3.86160151006437    5.26730324784575
H          -4.58721704079531    5.32183589752747    4.74937988326126
H          -2.38529192969092    5.24371162665458    6.87796984882122
H          -4.11726009227564    5.37691794288865    7.20622487395473
H          -3.27387996789855    6.68808490058481    6.37173719423664
H          -0.46296254728084    8.48265256217504    0.06376362637386
H          -2.87432091482543    8.57386110356995    1.95427063878236
H          -4.27724827687614   10.59161693601450    1.65924306992343
H          -5.24885729761522   13.36304912177912    0.05864594476497
H          -2.91069694321101   14.51686879097366   -3.93540239734025
H          -6.05904235634272   18.28168341933596   -4.10817461030075
H          -7.00276907356309   17.78978083093611   -1.23306491573602
H          -8.10189077172356   19.89709744284470   -1.44219737940541
H         -10.09373533193656   18.35288189263551   -7.11178238618895
H         -11.42835288204801   22.57551229293423   -4.81756496689540
H         -13.09273285851045   22.97782226427677   -6.53034345986705
H         -14.24686724010501   22.29677448435007   -8.59645208948438
H         -13.60797594485637   20.21550670561477   -9.74842354753470
H         -11.80698533924113   18.79874660400287   -8.84376516544879
