115
 SCF done       -211.347158345162          0.000908466493
C          -0.23496336424328    0.77035673299828   -1.36951443145858
C          -1.24331844214585    1.55879252143318   -1.85180937518548
C          -1.55426321867600    1.66979450443054   -3.22472263829300
N          -1.83571035620600    1.77814109643114   -4.33120204036510
C          -2.16228099739061    2.25266156458177   -1.03605313183675
N          -2.97651522385936    2.77392455187432   -0.41760992760553
C           0.54931815309024   -0.18034019567095   -2.14876309577245
C           1.11174730500368   -1.14508946295418   -1.26017027737847
C           1.85943292372609   -2.19244344532771   -1.71790195832598
C           2.09200945049056   -2.31937183135350   -3.10511095335231
C           1.55040750241749   -1.34745364473814   -3.99639466051390
C           0.77493503969923   -0.27668669034671   -3.49635363273153
C           1.79778942817519   -1.48181710379500   -5.37794414241566
C           2.53989539684659   -2.52636780733120   -5.85780455307114
C           3.07031347172804   -3.48383837833821   -4.97982320013614
C           2.85096251102009   -3.38275304077655   -3.63299088629194
C           0.76169653107432   -0.80095240511368    0.12725637904806
O           1.01614523852255   -1.40744643027786    1.14004897578329
C           0.07047132324401    0.52343465902422    0.03370510943212
C          -0.06943987519947    1.29755617986415    1.12840794376086
C          -0.41151568107846    2.69906382586003    1.14068341935009
C           0.10826612495227    3.60591742160123    0.23643285971541
C          -0.31254044702571    4.93443703437116    0.21565362643791
F           0.29591701043582    5.74873964243299   -0.65752175611776
C          -1.28140761641981    5.46048652980201    1.06211235912631
C          -1.78145426975417    4.56809128003832    2.04016201821385
C          -1.32936157824034    3.20221904780402    2.09252243952050
N          -1.94187244675846    2.50874728366861    3.04922866577250
S          -2.98711398742693    3.46461152117936    3.79636343377012
N          -2.71653827968653    4.80961076366412    2.95867223299924
C          -1.82339001122047    6.77361100717664    0.80703086321671
N          -2.16024855775648    7.72742046581911    1.72080425481836
C          -1.87008531087101    7.72075838144930    3.13415220883216
C          -0.36815530902346    7.73506282152981    3.40090507306053
C          -2.71926367524639    8.86414839409219    1.09343656546562
O          -3.07368020674332    9.85209310271606    1.70587139183728
C          -2.73432885153522    8.53216439855518   -0.31293807698325
C          -2.15666978476026    7.24869778903821   -0.45342055888262
C          -2.22668585002899    6.86126421188835   -1.84958892687599
O          -1.89894864675176    5.85405668146595   -2.43301176475620
N          -2.82993675412248    7.97218858328866   -2.47359720195026
C          -3.02393165404011    8.00605226382424   -3.90389134788146
C          -1.95513859467707    8.84393072504487   -4.60076292993361
C          -3.14318562949064    8.96786976597299   -1.57980668575903
C          -3.78480401367303   10.17277467571190   -1.93612477005208
C          -4.11128726091275   11.13086179788089   -1.01977167401623
C          -4.77015018275972   12.33993382951276   -1.33577422825694
C          -5.16171058915116   12.82969253925262   -2.56914753380680
C          -5.79970198247219   14.08429155008590   -2.39663097768566
C          -5.78737534714528   14.35512347321070   -0.94399823668858
C          -5.16875257281472   13.31552213776573   -0.32882533039473
C          -6.32070103677300   15.47524745982188   -0.29716283229732
N          -6.75068527846718   16.38247857820543    0.26142970752116
C          -6.32674725313938   14.89773066221902   -3.37914259246488
C          -6.97114340456135   16.15348707614275   -3.21424808698912
C          -7.34953991778363   16.63885023870460   -4.45252484868537
C          -6.93272992377590   15.66610714255659   -5.45239016016625
C          -6.32626204220370   14.62265711938889   -4.82857420748735
C          -5.80133394389559   13.49539110122420   -5.46800720114433
N          -5.37662825348078   12.57904115791748   -6.01691501622978
C          -8.03263964026219   17.83308627118078   -4.79051457570315
C          -8.46692504289965   18.75318625455418   -3.88273006789812
C          -9.14377774213613   19.96820182929903   -4.14296538858643
C          -9.81737389958161   20.42349278740335   -5.24708283672213
C         -10.41786635946132   21.74798805038827   -5.31957315961271
C         -10.10724531149755   22.83018117545794   -4.53711878697610
C         -10.71700616582266   24.09570081555714   -4.66806215522669
N         -11.17836595765979   25.14590632234662   -4.71614673135853
C          -9.11415545537394   22.86656761406692   -3.53485621824928
N          -8.30882461361341   22.99751850669960   -2.72649779556891
C         -11.34994629716617   21.76406428557720   -6.43974507946494
C         -11.24910949832365   20.51901247101704   -7.11998181853473
C         -10.25751064209140   19.66296426782394   -6.44740644941622
O          -9.91310851729759   18.56057110611171   -6.82004260444937
C         -11.99237530576232   20.23787451747926   -8.22993003691723
C         -12.89406757034219   21.20965180441343   -8.71747375932577
C         -13.00893054447231   22.45610800983427   -8.03673160419501
C         -12.22310040970925   22.71829251863373   -6.89077204838116
C         -13.91475633365413   23.41712313991568   -8.52988864677705
C         -14.66960706917973   23.16196267446016   -9.64232759784432
C         -14.55478777162826   21.93470677727860  -10.31219302659318
C         -13.68572043632070   20.97935848460723   -9.85967568087193
H           2.26788867515124   -2.91625533828314   -1.02842970496209
H           0.38426219039722    0.45026293490244   -4.19116682891675
H           1.38428301271546   -0.74483311742200   -6.05041314440405
H           2.72208701702146   -2.62155694642926   -6.91766135445970
H           3.65355276487135   -4.30143245940731   -5.37609687769686
H           3.25633276833137   -4.11657701677894   -2.95190854522562
H           0.10594454013911    0.82770524399933    2.08969437279602
H           0.85290614178132    3.30023274005412   -0.48286744293907
H          -2.33425584452589    6.84253744780536    3.59041614687347
H          -2.33320142224975    8.62619965984142    3.53554336886218
H           0.10311506607097    6.83628881016026    3.00799261025608
H          -0.18679745804559    7.78143189967515    4.47093080510119
H           0.09251317784803    8.60189692584036    2.93221114663142
H          -4.02441597510339    8.38399917837968   -4.13073644473325
H          -2.95473659612109    6.96790134017225   -4.24052211176925
H          -1.97604495008522    9.87423098158673   -4.25258362692195
H          -2.12548380224020    8.83569100864819   -5.67349992351387
H          -0.96998051574854    8.42973640966878   -4.40031841222229
H          -4.03340758485500   10.32402284675266   -2.97620694748860
H          -3.86662308506489   10.96792942932332    0.02173127224022
H          -5.01243303294520   12.35624885255547   -3.51854104317540
H          -4.99390615712695   13.20151158418978    0.72504121969648
H          -7.12536184241170   16.63098107311448   -2.26720661077587
H          -7.09820706591185   15.77434813691171   -6.50846903752145
H          -8.21349305778343   17.99317966850894   -5.84262339866820
H          -8.23410619747298   18.58532952485055   -2.83858447375755
H          -9.15570289670452   20.63764117228363   -3.28950200840915
H         -11.89281503351775   19.28561039140828   -8.72957101252555
H         -12.33818833842981   23.66916377447305   -6.39547214103530
H         -13.99856585471166   24.36127102131495   -8.01198098380780
H         -15.35964892930737   23.90516459306637  -10.01279019459634
H         -15.15833341679257   21.75005846460915  -11.18826326119379
H         -13.59265549979239   20.03237522422582  -10.37104302007304
