115
 SCF done       -207.379762966923          0.000724307056
C          -1.65318069096193    3.06025297042361   -1.98984974976281
C          -0.82062179666328    4.01105215793244   -2.51816132762225
C          -0.98916443660333    4.58426895011211   -3.79365931834403
N          -1.10955874700074    5.11899011147584   -4.80252630063338
C           0.33384324900298    4.47756420332308   -1.85381530446212
N           1.30368077741856    4.84640683460717   -1.36293302310625
C          -2.65982986336914    2.30570537778061   -2.72406463276655
C          -2.92207917881265    1.09627405876652   -2.01436378221873
C          -3.79676577586231    0.16302753295648   -2.49155701346819
C          -4.46593242754837    0.40568282268995   -3.71252757002913
C          -4.21704685552800    1.61853877719965   -4.41900255427967
C          -3.30031150545962    2.56431465164068   -3.90583705095257
C          -4.89593716380167    1.84901413444688   -5.63283470056162
C          -5.77699739393713    0.92677628536500   -6.12823892652643
C          -6.02097226722095   -0.26697526141406   -5.43269175422762
C          -5.37892949326049   -0.52224590906617   -4.25132860229601
C          -2.13417719824785    1.07493123061964   -0.76743021608566
O          -2.05596287295469    0.19378177568990    0.05333368825845
C          -1.50462824345678    2.42952711114452   -0.69245146043637
C          -1.07032118011638    2.91083258795338    0.49965333533335
C          -0.85688489647446    4.25935650144928    0.88166107806839
S          -1.58156642974573    5.63597564949948    0.06812590231945
C          -0.14990317947624    4.71566290784982    1.97168928670703
C           0.67482063717296    4.11724622535685    3.04077204568916
O           0.91511492095911    2.96142271768357    3.27730249820807
N           1.14307776398082    5.20289472829868    3.76620663117291
C           1.98774361541246    5.06539757664712    4.93369667894633
C           1.15732860433322    4.97856799996453    6.20937557032663
C           0.70946522529601    6.44082293245645    3.28997171306893
O           1.01070186876799    7.50313767727979    3.76488505577861
C          -0.13916093999057    6.11403980160369    2.12851686240362
C          -0.86571791758139    6.79909857641414    1.17606495991107
C          -1.04922908198968    8.18989381750691    1.00549867820975
C          -1.63287347995794    8.69820715451982   -0.11239663047231
C          -1.84223979939031   10.07258740160196   -0.36097350333890
N          -2.32175517688253   10.55621804282964   -1.55946249583882
C          -2.57804879695284    9.78710486002129   -2.75406036319779
C          -1.28738639981578    9.36009974713759   -3.44877190925610
C          -2.46922677296148   11.94976406546677   -1.54158750433130
O          -2.87981031164620   12.59792689882402   -2.48647137746427
C          -2.05104884252582   12.33770238781769   -0.21264276161438
C          -1.66618929327381   11.16736489069365    0.48264292550941
C          -1.27759836656660   11.54993675073816    1.82437783202785
O          -0.89773158409854   10.90511041515749    2.77664719712759
N          -1.45180828918821   12.94810602742314    1.84753518521934
C          -1.11771022873841   13.72229839340007    3.01867879629330
C           0.23416230764989   14.41672768686935    2.87512988411754
C          -1.91260744566328   13.43059588177754    0.64682814389909
C          -2.20862805025434   14.79123734973889    0.39965579322745
C          -2.69055281128636   15.22519227976733   -0.79540736938934
C          -3.02985863476430   16.56774309058503   -1.07747690487352
S          -2.83280766034922   17.86000084772801    0.08056968540252
C          -3.47422068792049   19.02853097758162   -1.03023124005984
C          -3.81770753072487   18.41600734977285   -2.24288182572849
C          -3.56313770209529   17.04134142620666   -2.26303933533986
C          -4.35996163788829   19.13072533008335   -3.32631050097635
N          -4.80085211258750   19.71098729120687   -4.21125756834757
C          -3.61070021024794   20.39573727530610   -0.70913574358069
C          -3.21845267605428   20.93868604593714    0.47602421469364
C          -3.36668981022760   22.31282618879721    0.76062025924995
C          -2.94756404768758   22.91352330472882    1.91481651072628
C          -3.06369011957992   24.31971496214975    2.25541700532586
C          -3.73644800464561   25.28494337171303    1.55114972932020
C          -3.81861650783354   26.63745248119890    1.94460548031258
N          -3.92220111288427   27.75034947119053    2.20699366515509
C          -4.45836526756020   25.08020474892545    0.35664356305688
N          -5.07336316545787   24.99779813839528   -0.60978784026082
C          -2.35758381145073   24.53189177226385    3.51442016585118
C          -1.86435394800018   23.27869068825824    3.97755172645898
C          -2.22880096206142   22.22258354455126    3.01941555672713
O          -1.98017434822452   21.03828402829332    3.11940452820732
C          -1.15828260581743   23.16501354720575    5.14051807645472
C          -0.90213448020534   24.32337073974404    5.90727185499445
C          -1.38805235892401   25.58204292477584    5.44916713761053
C          -2.12033224256354   25.66765221099592    4.24284659354073
C          -1.12259467855271   26.73312277878874    6.21852578035278
C          -0.41097270734252   26.64709936965952    7.38412238242922
C           0.06675542372435   25.40718682005996    7.83436486699374
C          -0.17411200927654   24.26995352117370    7.11207723486060
H          -3.97639175673710   -0.75078698778060   -1.94507835939384
H          -3.13359810439137    3.47876724206316   -4.45405210568851
H          -4.70243030007743    2.76801185245268   -6.16636800075801
H          -6.29078897675884    1.11185615040685   -7.05957958304836
H          -6.72012369218242   -0.98314433722045   -5.83758378212834
H          -5.56260113585414   -1.43977178018857   -3.71186281741496
H          -0.92899373184152    2.18271987294975    1.29332094732673
H           2.64420780461230    5.93810917814014    4.96642483331568
H           2.58029686333054    4.15718609806144    4.80130907513839
H           0.56092756727320    5.87985493457590    6.33089604057851
H           1.81406991778957    4.87521837413203    7.06833231438821
H           0.49522914985068    4.11658313471039    6.16963109900102
H          -0.67752964671823    8.83373696086154    1.79274382226971
H          -1.95470383857052    8.00580848136016   -0.88039392180676
H          -3.15265399671229   10.44283261316380   -3.41413408092673
H          -3.19145013518976    8.91600005091439   -2.50524084200424
H          -0.71885185472360   10.23650969647380   -3.74975248265535
H          -1.52175309198815    8.77586034256109   -4.33407935055181
H          -0.66730552856663    8.75620167090053   -2.78987995027895
H          -1.07745244959652   13.01044740185536    3.84790531682574
H          -1.91039042698008   14.44957447229930    3.21571040297355
H           1.01668306881232   13.67718200661663    2.72497064559721
H           0.45545603893588   14.97804746290707    3.77845105687494
H           0.23581877120710   15.10064242496130    2.02920767037411
H          -2.05719422265330   15.50216532277616    1.20076546290680
H          -2.84570072783071   14.51751168155833   -1.60043695531225
H          -3.76208507783677   16.40614767301148   -3.10775778304494
H          -4.05327517553251   21.02403829180324   -1.47371981766750
H          -2.77036293459368   20.30771798656342    1.23145755173638
H          -3.83413347995314   22.91607062525735   -0.00718873634253
H          -0.79645708056478   22.20201776514926    5.46939999425413
H          -2.47116334554039   26.63600717539676    3.92382126497072
H          -1.49290922554330   27.68528219357182    5.86779099800501
H          -0.21192682003778   27.53459982419177    7.96584408891021
H           0.62686397396892   25.35777877147095    8.75616697436324
H           0.19131543345852   23.31249337476474    7.45380141189805
