124
 SCF done       -228.646845888081          0.000980419580
C           6.72251527550995    4.79555003594439   -7.16729290631431
C           5.70187720261452    5.27479277629898   -7.93939197540445
C           5.75429027038425    5.35237672731173   -9.34700581913839
N           5.74831168259293    5.43426738756354  -10.49141622125185
C           4.45307548344411    5.66527726823605   -7.41347646052739
N           3.40625047181690    5.93799078899157   -7.02913252032317
C           7.94690944729706    4.16542305842180   -7.63580191696031
C           8.53374549153724    3.43887535775586   -6.55634443601884
C           9.68879079953297    2.72747379378123   -6.71501702118581
C          10.32293756061190    2.71630670849091   -7.97703804945276
C           9.74987367634020    3.45282226628242   -9.05489338021666
C           8.55116070654507    4.17679442502964   -8.86440492862692
C          10.40047350448957    3.44052066373849  -10.30570987663934
C          11.55859295918679    2.73465188263694  -10.48621373555051
C          12.12058580822989    2.00858727379920   -9.42518035811663
C          11.51571708217091    1.99934656433245   -8.19782056213933
C           7.72636203602354    3.62622598809195   -5.34242433511199
O           7.86053508174893    3.12061511858964   -4.25282283389465
C           6.70039854545991    4.64547886597342   -5.72138560220106
C           6.06049447938364    5.34543780990965   -4.76291512955612
C           5.33206887120889    6.57889861311337   -4.87140646470927
C           5.77951373829173    7.77233679073462   -5.40114675684419
N           6.98880286361457    8.04500131762960   -6.06583988123862
O           7.27770998616104    9.21487315490789   -6.24068846743386
O           7.68692988129530    7.11054310559969   -6.43716657155312
C           4.86316755407131    8.83243888762157   -5.03700960721486
C           3.84246503847340    8.29942811856425   -4.33474867721441
C           4.02600495054924    6.86952385496679   -4.24793052270386
C           3.14742916123010    5.90604798089370   -3.80991343004303
C           3.44107976081531    4.50913935812486   -3.68125260740577
C           2.46161889036483    3.91982288026067   -2.95212129406647
C           1.46361184020412    4.89647893733100   -2.61655082731989
N           0.35435618228866    4.48927745822616   -1.85451903317748
O           0.12058236867920    3.29343943453184   -1.81760153288142
O          -0.29559894684309    5.31892354263702   -1.23284157131506
C           1.79507216073372    6.11667601234524   -3.22000846054006
C           1.01453020862928    7.25568170973118   -3.50086158200837
C          -0.16458750413767    7.60887037420898   -2.89634744643115
C          -0.92079004931482    8.73687580903684   -3.26110793092668
N          -2.12451231017605    9.04796589903473   -2.66970430442364
C          -2.83901332274327    8.23432249537724   -1.71115363335621
C          -3.49973577360175    7.02727705419975   -2.36861152918985
C          -2.65387328502553   10.24698752797800   -3.14725017090486
O          -3.70775414507887   10.72786787155579   -2.77177362289706
C          -1.67377715349987   10.71973534500511   -4.10825208311820
C          -0.63652700879561    9.76753151209814   -4.17117720062110
C           0.33308441452090   10.23412837847337   -5.14114410540531
O           1.38597387047013    9.77209599679053   -5.52540617374823
N          -0.20770935514174   11.44492670935942   -5.62324242824869
C           0.51096859937066   12.24763516537415   -6.58509669746680
C           1.21809403147277   13.42882024945879   -5.92705553169771
C          -1.38578842707565   11.75554188706625   -5.00784542863140
C          -2.15493616918762   12.92037876027077   -5.28984339525959
C          -3.22048273987040   13.24032935401133   -4.52781509988170
C          -4.10882511887992   14.36447305865659   -4.72355177174534
C          -3.64548899372800   15.64274409908701   -5.05247910918599
C          -2.26853593748132   16.17388798981288   -5.19571657553734
O          -1.21253628807800   15.61072505719141   -5.09862946118043
O          -2.35343270848026   17.49625808322950   -5.45961817939076
C          -3.69864259946395   17.93793292469304   -5.49556578002359
C          -4.51281793698572   16.72090023818752   -5.20433726101495
C          -5.87855871037215   16.57116332735882   -5.05081917312787
C          -6.35659174858408   15.31605768179135   -4.72972621512671
C          -5.51201647649338   14.20871329443720   -4.55893435180110
C          -6.05771936097172   12.90611645417731   -4.25792525391593
C          -7.35780518289339   12.54171542861332   -4.34883891241980
C          -7.75283128819721   11.21032640769314   -4.05344460774490
C          -9.03502400454652   10.75261021410543   -4.10096262133680
C          -9.47964582933635    9.39531250743985   -3.83250390520498
C          -8.68598825512792    8.28291438975012   -3.73430950765175
C          -9.17722045765565    6.98568957826554   -3.47370082634606
N          -9.51493374747884    5.90991387563125   -3.25904238938066
C          -7.28995663940668    8.25321393234679   -3.93147661415641
N          -6.16296400858156    8.13051173223806   -4.11591688488503
C         -10.93588315447296    9.40962083039196   -3.76935808593044
C         -11.39207982839945   10.71980220470208   -4.09384455305917
C         -10.23625914300318   11.59688185922827   -4.34280492402174
O         -10.27032912667578   12.76756484918132   -4.66179365708593
C         -12.72066614393531   11.03075863272102   -4.13849533124986
C         -13.67332970928128   10.02870773611887   -3.84953220428166
C         -13.22540071516715    8.71808629354021   -3.51418956386536
C         -11.84306217496179    8.42453536176594   -3.47928066617286
C         -14.18486057233454    7.72686527636105   -3.22327679610023
C         -15.52213890947244    8.01403098765076   -3.26291162374998
C         -15.96188588893738    9.30440872483246   -3.59463357353717
C         -15.05716974347793   10.29025287932112   -3.88175126519250
H          10.11654360264710    2.18290369433842   -5.88624493540378
H           8.14506499650992    4.73847941043932   -9.69105348261820
H           9.96360084011435    3.99952791074017  -11.12000148631350
H          12.04905485824530    2.73174676807057  -11.44811372684588
H          13.03549381904106    1.45789159496494   -9.58513700929512
H          11.94413280430868    1.44310538518952   -7.37686947461838
H           6.19999960747452    4.98124468082681   -3.74693140191879
H           5.02071641830263    9.86048204074683   -5.29892678618079
H           3.02961653405076    8.85297856714221   -3.91614884982735
H           4.30634493397030    4.01731168614457   -4.07561832810558
H           2.39806737869054    2.89135595259138   -2.64932711495294
H           1.36690123072650    7.87154041799154   -4.31589610996116
H          -0.53599432606549    7.01973595503145   -2.07180803360197
H          -3.60369795125147    8.88353494668697   -1.27676141610472
H          -2.15374799556260    7.91513902423387   -0.92150811735804
H          -4.22048055913645    7.34983443834470   -3.11559811691014
H          -4.01872441265156    6.44488802033436   -1.61283416044026
H          -2.75841612395039    6.38974565268878   -2.84330241378981
H          -0.17954593618619   12.59271011356111   -7.35911074104682
H           1.24690478362416   11.57892869512848   -7.04092673737121
H           0.50422112715464   14.11775913410331   -5.48334568173606
H           1.79911558204536   13.96321332110291   -6.67322929439604
H           1.89420730039374   13.07356438172354   -5.15307445184862
H          -1.86798395177943   13.52580174381709   -6.13493092700160
H          -3.46080443673493   12.58952727702947   -3.69796390892547
H          -3.90742831392804   18.36155603144957   -6.48458249405301
H          -3.83154802917433   18.72539262649348   -4.74547297903115
H          -6.54805778446470   17.40883186740902   -5.16646815277329
H          -7.41735812442143   15.18682908936166   -4.58659507655745
H          -5.35831882111807   12.14063911601060   -3.95156261849390
H          -8.12963471317519   13.22300881597066   -4.67136268179756
H          -6.96068721243490   10.53139494440505   -3.76238295045638
H         -13.04090952496209   12.03073915924464   -4.39122780834325
H         -11.53628953840400    7.42398724006713   -3.21878302228853
H         -13.84173555592848    6.73444941610078   -2.97021601576112
H         -16.24912276057413    7.24784584232744   -3.03918940118279
H         -17.02088278801859    9.51330587299178   -3.62144040430184
H         -15.38969230169554   11.28562694496578   -4.13795990379809
