100
 SCF done       -176.701432885791          0.000550888768
C          -1.62621978311231   -1.52791662382697    1.45457315775801
C          -2.70294373631608   -1.39734976444175    0.62475078750611
C          -2.69973856286042   -1.80027035574207   -0.72670560717133
N          -2.73531332382885   -2.10994618336284   -1.83102925146407
C          -3.97040581782024   -0.95778131108375    1.06588370923622
N          -5.03710779682502   -0.70030068385919    1.40103863406635
C          -0.38526998105468   -2.23210213033523    1.15377981465402
C           0.26029545168955   -2.56436803793846    2.38231188225671
C           1.44161202688998   -3.24954837124715    2.40963189853370
C           2.04530605852577   -3.63050864709751    1.19077659199074
C           1.40956543339263   -3.29411421142892   -0.04006656907409
C           0.18328454783212   -2.59045001537899   -0.03886847323825
C           2.02736875095542   -3.67522362808029   -1.24863010555123
C           3.21539410962702   -4.35402399776472   -1.24425698148128
C           3.84128000098501   -4.68290405059459   -0.03228919781269
C           3.26802435125637   -4.33027679303509    1.15905892308159
C          -0.52342953720565   -2.03316936955236    3.50926067612426
O          -0.32708731579509   -2.16562993320613    4.69364317503473
C          -1.59500090812491   -1.20608136968984    2.86996065628256
C          -2.18487443466227   -0.22160664282407    3.58727335743620
C          -2.87209009263144    0.91451003906991    3.08331058763342
S          -3.62126583720798    2.09173992189559    4.15442269326482
C          -3.94467730108156    3.01819624334743    2.69877512973290
N          -3.50592855176664    2.42250119171576    1.62133704185282
N          -2.92723679093739    1.28184171291731    1.83224988377779
C          -4.53714052178279    4.30809729653666    2.74040561438563
C          -4.78463821293323    5.03252582008854    1.62573277541413
C          -5.21788114730046    6.38183804440706    1.67679775343420
N          -5.38385050647950    7.08402487568501    2.76095418279113
C          -5.66142990631454    8.35859625645395    2.48944972582429
C          -5.72293218581003    8.67480019665414    1.14211666008693
S          -5.44445907586829    7.30690951653520    0.16982084616962
C          -6.05716775370234   10.10749443505066    1.02173360408505
C          -5.36962224912661   10.62285054677487    2.29888820393991
C          -5.82537718825787    9.58150873958761    3.37449498413256
C          -7.29175910079388    9.84087854880925    3.79689311529263
C          -8.20829587135867    8.63069345337196    3.65119237705351
C          -4.90390526545352    9.50022764167027    4.59830643771855
C          -5.26186440569227    8.36494251859996    5.55203971733051
N          -5.64450331972380   12.04694793378196    2.36830358626096
C          -6.10002310273376   12.53262673053272    1.07959069419336
S          -5.55600303342908   11.33588676170741   -0.21609730977371
C          -4.81287207579700   12.88826533986485    3.08345036002402
C          -3.67157311334749   12.49098866851242    3.79896555750982
N          -2.88546770036056   13.35105829707902    4.39811741834024
C          -3.20196713899099   14.64082342024441    4.34837062741385
N          -4.33020172335347   15.11224462739842    3.81311303588042
C          -5.10543531215984   14.26107299815437    3.18531164271959
C          -2.31147215908661   15.59897100197984    4.97343827417710
C          -0.96681433172337   15.47864507334922    5.00993949891169
C          -0.03214182175839   16.29968705847514    5.77406113460540
C          -0.34024372025792   17.37926747687515    6.55557378395502
C           0.61074738831570   18.12323512091352    7.28781514603971
N           1.33063416147560   18.77280301518029    7.90216848413708
C          -1.63007258945856   17.92101287603618    6.74621466475516
N          -2.63686200334465   18.42774002515542    6.96415133838249
C           1.30212154128974   15.74353538149439    5.58685019198592
C           1.22506597948306   14.66306131480047    4.66282345079698
C          -0.16647412847782   14.49583748874242    4.20912209291258
O          -0.54763439983865   13.79187085697335    3.30447326194695
C           2.32753728933207   13.94659363933030    4.29475237951749
C           3.58150373848731   14.27260333663790    4.85647832717944
C           3.66845286210551   15.35147894886027    5.78357376691714
C           2.51219926712454   16.08285961956980    6.13641955478768
C           4.92552098858184   15.66936394637746    6.33859810444528
C           6.04192659153693   14.95613670900279    5.99748148030227
C           5.95459625248938   13.89340008759535    5.08519855811116
C           4.75092799302738   13.55924560406013    4.52679412642109
H           1.91232918286094   -3.49425193890119    3.35026212283913
H          -0.27218518976133   -2.33660546538678   -0.98338201510300
H           1.54104407566879   -3.42172650600958   -2.17903842992635
H           3.68027533799781   -4.64150270883844   -2.17533988935480
H           4.77973218501460   -5.21657305623781   -0.04763558460061
H           3.74473344439384   -4.58081288211971    2.09541755504799
H          -2.01838394772778   -0.24080367390933    4.65823359477105
H          -4.74624136728510    4.72833318173465    3.71252332223950
H          -4.59968299253446    4.60153385022743    0.65319554884312
H          -7.14816248176322   10.21374372099876    1.08343708624649
H          -4.28630210618540   10.47322832402363    2.15548728061478
H          -7.69640668569685   10.66808196637249    3.21001520061488
H          -7.29602414794292   10.16902025794383    4.83676423726465
H          -8.32824778172276    8.35080651250466    2.60647757475848
H          -9.19141376046410    8.86255210233843    4.05469293423483
H          -7.80685469313849    7.77501822312981    4.18639479208940
H          -4.94860373563893   10.44970806453098    5.13659950716829
H          -3.87830407658588    9.34273310471549    4.25456544179406
H          -6.24152785148778    8.51407845292677    5.99687117521812
H          -4.52913362630924    8.32362766668722    6.35439198729928
H          -5.25462443619671    7.41717256802660    5.02274731111295
H          -5.68008001839439   13.50743831519430    0.83810389842802
H          -7.19280283476072   12.57678395963274    1.03477661776692
H          -3.36317501803968   11.46142114255668    3.88155577076310
H          -6.00805352891017   14.67633398477806    2.75485153031461
H          -2.80968201913658   16.44591175798325    5.42460020037102
H           2.24042348221613   13.13472470784527    3.58801455092500
H           2.61406124387116   16.89499370538960    6.83836881194086
H           4.98791475292888   16.48805578933054    7.04036883076951
H           6.99957101404366   15.20624130609506    6.42885897780563
H           6.84612607450517   13.34140250248853    4.82750157918365
H           4.67736155974546   12.74257282602898    3.82357683563372
