100
 SCF done       -187.243293736023          0.000700863702
C           2.54633073190348    0.66431370753275   -0.23688495271540
C           3.19650874576837    0.51968695600620    0.95882127876540
C           3.93954035334567   -0.62658998419233    1.31453455678506
N           4.55497447475775   -1.53268099878910    1.65711081592390
C           3.26627007974994    1.50408181565183    1.96937397544456
N           3.40289462140221    2.26085011534896    2.82088301672320
C           2.56466380520818   -0.28631384838858   -1.34096424843333
C           1.94903656400805    0.32275400347908   -2.47222680455962
C           1.82428393585784   -0.33081383778507   -3.66496567326879
C           2.31274964925954   -1.65103702370571   -3.78077762843998
C           2.92448980592127   -2.26981268904139   -2.65165880120672
C           3.04374647296280   -1.56658308996627   -1.43091300991012
C           3.40431159149597   -3.58930958203302   -2.77800194074372
C           3.28637913718380   -4.26662894462946   -3.96129789243753
C           2.68385933491806   -3.65669688409079   -5.07190534195074
C           2.20814138851735   -2.37642073437030   -4.98397081693399
C           1.51342297435684    1.68450582142161   -2.12652233617466
O           1.02838963313024    2.50240633647072   -2.87650820402950
C           1.78576341845944    1.82722692665665   -0.66708714043314
C           1.23449762569432    2.75787852142027    0.16503898245713
C           0.42759032513619    3.86110213932229   -0.16208039159797
C           0.24688195248931    4.66192714678191   -1.24088407691385
C          -0.73678065776750    5.68041441176434   -1.10199026826539
C          -1.38747075088280    5.76712195611248    0.09338011396591
S          -0.66716553194093    4.46987825639922    1.14796893186592
O          -1.64020095164706    3.46515032024283    1.48350215932083
O           0.09977697189003    5.03671606351125    2.21930556918626
C          -2.41903280261794    6.67884910799501    0.39281145591925
N          -3.11794838364754    6.80112083540778    1.56331103452705
C          -2.93564835056076    6.09958248269619    2.81548078332308
C          -1.95505616749845    6.83258920697729    3.72656026426125
C          -4.10053177218840    7.81521045085822    1.48496036741730
O          -4.85043591711164    8.10264920337145    2.38980814570552
C          -3.96695146896177    8.33704608642062    0.14171815045041
C          -2.93907319841128    7.63162674625803   -0.50446207709547
C          -2.82071085910137    8.17413057509198   -1.84246743371542
O          -2.08228962982170    7.89882778834467   -2.76616661134104
N          -3.79541759364381    9.18976333955812   -1.90844819413377
C          -3.99528019713709    9.89925241820168   -3.15183243401370
C          -5.23301437731443    9.40814361022125   -3.89777356353648
C          -4.49673879201573    9.29609129106912   -0.73057166494575
C          -5.54919382007559   10.15852150122253   -0.35314958887704
C          -6.13183824411799   11.17754420227739   -1.04879283022229
C          -7.19666056363195   11.95873519585240   -0.57094512643098
C          -7.91943024769648   11.98283866862295    0.57831381892814
C          -8.99694587572925   12.91604411615645    0.62848320917894
C          -9.19713564062666   13.67180327691362   -0.47901385480906
S          -7.89052058698420   13.22929391391540   -1.66081891737620
O          -6.96105833278165   14.30574479362358   -1.84916077066249
O          -8.44293412295315   12.62284275452556   -2.84071704976247
C         -10.11782403366316   14.66102065562309   -0.86681151941451
C         -11.42074741011724   14.79265969941224   -0.48434833200137
C         -12.34888530006603   15.79348714158445   -0.98539901102429
C         -12.01332139326380   17.00334054514146   -1.53012212509302
C         -12.95762053936462   17.95250753192001   -1.97631301220648
N         -13.68189697104938   18.75644654285272   -2.35871852560126
C         -10.69347056039347   17.48951954255619   -1.65787051981080
N          -9.65564802795046   17.96758014352418   -1.76205222890964
C         -13.69944579071445   15.31694451315989   -0.71863324628252
C         -13.61306037494552   14.11976283348731    0.04924683550852
C         -12.20046581601971   13.79046419079814    0.29683120551868
O         -11.77474064111185   12.88491108635155    0.97963371265041
C         -14.72717059970393   13.44256105521670    0.45591578580551
C         -16.00173663126672   13.93743683249371    0.10090671939580
C         -16.09607284641769   15.13066226434720   -0.67312836969619
C         -14.92519012252942   15.81306202719335   -1.07600017371916
C         -17.37330387405747   15.61176557110870   -1.02581863287331
C         -18.50406737440648   14.94818666984978   -0.63352803173845
C         -18.41012938176236   13.77412087554547    0.12877061713316
C         -17.18571206301952   13.27982531546753    0.48887614346746
H           1.35576446217822    0.15372775412188   -4.50865960291458
H           3.50510462072354   -2.06404412094750   -0.59265023846984
H           3.86871025550783   -4.05428131636078   -1.92094139790849
H           3.65699444666670   -5.27688316163030   -4.04799972353147
H           2.59813098143023   -4.20641083513930   -5.99714134533478
H           1.74323440026062   -1.90158878015668   -5.83544251168543
H           1.33550445800278    2.61321484677237    1.23592702533310
H           0.79979870430413    4.56017047112562   -2.16030031316972
H          -0.94483744045941    6.34666761656585   -1.92807212430148
H          -2.60350162100760    5.08063483664893    2.62676890550011
H          -3.92185561391520    6.07522061605402    3.28925033111269
H          -0.95329432275736    6.81120194139231    3.30620450258316
H          -1.92905363787943    6.33946473660424    4.69354646652365
H          -2.27226584752505    7.86354964749041    3.86759610052444
H          -3.10483401756242    9.69184340935170   -3.75324024600070
H          -4.03996292864287   10.97373233149205   -2.96135975135951
H          -5.12416352372377    8.35348926972706   -4.13958386284936
H          -5.34596193885408    9.96626378090338   -4.82269085690298
H          -6.13489467729989    9.53668998511826   -3.30420461301179
H          -5.91120934755309    9.95116449450964    0.64602876724231
H          -5.80646459871032   11.45076251104309   -2.04053361731579
H          -7.71910765932345   11.34831610399022    1.42744125081314
H          -9.59647800635330   13.00314247312856    1.51970089820333
H          -9.73621421604899   15.32123800828092   -1.63906967093929
H         -14.63641230844363   12.53828996779324    1.03917808926483
H         -15.02799626060995   16.70942087322170   -1.66684892353056
H         -17.44071604217566   16.51667906449665   -1.61149615996996
H         -19.47774787768807   15.32460145954589   -0.90878532287595
H         -19.31261262708462   13.26317295876434    0.42890529390517
H         -17.10715682014325   12.37630557201512    1.07549837529129
