116
 SCF done       -216.903618396181          0.000627073209
C           8.30347520389126    8.48142618349335   -2.29696507478513
C           7.64667464551083    9.68294362186322   -2.32218779380358
C           8.28135625748586   10.93548261069795   -2.18558476955251
N           8.73911200744746   11.98211861608775   -2.07825474699642
C           6.26769788270031    9.81036968396229   -2.55135032571953
N           5.15379049419685    9.98720219307138   -2.77635628999088
C           9.74309320817399    8.28947284381343   -2.26944600080988
C          10.03749038833249    6.96275680388711   -2.70565766557066
C          11.32190141105807    6.50832287128053   -2.79303111875095
C          12.38360468224577    7.36980048236638   -2.43551940333083
C          12.09341806848308    8.69045502902246   -1.98304242448046
C          10.75530809377671    9.13743990621956   -1.90696730615597
C          13.16284636511979    9.53341597093513   -1.61739739351322
C          14.45713630114441    9.09700692921094   -1.69664670459844
C          14.74191879509771    7.79834635550405   -2.14462506232628
C          13.72760465448892    6.95372789084075   -2.50661839380182
C           8.78079626950433    6.24743399738598   -2.97785829123546
O           8.62024829703696    5.13780745186433   -3.42803082690194
C           7.70545792396468    7.17674953557378   -2.51444542264078
C           6.48011307287420    6.69022377823310   -2.22070277945174
C           5.43672546332376    7.28724829366029   -1.44332145883404
C           5.54776721781856    7.99690621190563   -0.24874306590959
N           6.68570679309629    8.25583060701444    0.52985210006507
O           6.52155524924987    8.87006459390331    1.57125660731866
O           7.78213761150693    7.87063917055525    0.14150379519848
C           4.23640370280752    8.37211216782081    0.20859775496051
C           3.33366724429241    7.97406917273766   -0.71646115415954
C           4.02033193325905    7.28610206136604   -1.78346373017541
C           3.40094293843784    6.75566636265378   -2.90812898274772
C           3.79395701500482    5.64465451586392   -3.69502017632816
C           2.72321635423072    5.22267342675179   -4.44565081765787
C           1.62697687554532    6.09396807899666   -4.23221616092926
N           0.40190644983566    5.95971017076667   -4.89840157571976
O           0.28517217314940    5.02606886384532   -5.67468062218560
O          -0.48883519413101    6.76649733659043   -4.66524921123584
C           2.02929574836957    7.11685100205838   -3.34810853553715
C           1.35317470501142    8.30851788530330   -3.12130946560894
C           1.93231313903409    9.49397752507559   -2.69142518810191
C           1.21288124919702   10.63892505453644   -2.39947744198429
C           1.74168036800664   11.90438633835982   -2.02055903011043
C           0.73316786350266   12.85862453097876   -1.73778139416195
N           0.98071813802943   14.11477804735275   -1.36350674135586
C           2.23914987108965   14.46660244755323   -1.25748675143366
C           3.31841111729244   13.60541256557203   -1.51216154533336
C           3.07811761910074   12.30615767743173   -1.89868486745886
C          -0.58800449593356   12.34460338777839   -1.89244411840535
S          -0.53683201704627   10.68725689797860   -2.39152563011513
C          -1.74818039706190   13.07355007650705   -1.65365870606838
C          -3.02557260031407   12.58343222777664   -1.79298618161377
C          -4.19016263512182   13.31338850702038   -1.51575586556618
C          -4.31108863356784   14.61992094112200   -1.04739386579597
C          -5.67780639279496   14.93176434369354   -0.87906434991168
C          -6.43006720088781   13.72782698374971   -1.28762401434655
C          -5.53609722860872   12.77810003202539   -1.66303899247398
C          -7.82125521127989   13.56790050883750   -1.30536674279781
N          -8.95576411088607   13.39472423650633   -1.33827195734667
C          -6.21745145821067   16.11613248498168   -0.40526054454099
C          -7.58067604111145   16.42340115188395   -0.17830366657826
C          -7.67962942785841   17.71096286193761    0.32776658503135
C          -6.33060670759576   18.25364329486212    0.41953884958972
C          -5.44937134213915   17.31604903675271   -0.01173326404420
C          -4.06219358726376   17.48725518517736   -0.07103939077300
N          -2.92704664183992   17.66120511416166   -0.10757427394786
C          -8.82528165471830   18.43776012795161    0.71883442261829
C         -10.11085010747324   17.97919933662450    0.66234175241979
C         -11.18815294670951   18.78361887389299    1.08878906950841
C         -12.50392530261401   18.40887348842002    1.07260564126210
C         -13.64047051609486   19.20106576540058    1.50207754301413
C         -13.61137135646583   20.47313681586327    2.01693162053167
C         -14.75785097626738   21.19084969380463    2.41868320431973
N         -15.64498455417332   21.83286211079709    2.76327461691617
C         -12.45585143441627   21.25397253915242    2.22605153878990
N         -11.56965232818317   21.95554119696817    2.43118645148907
C         -14.84412973552542   18.40368096373095    1.29310774159733
C         -14.46832350447116   17.14242892634444    0.74826309571751
C         -13.00578532245349   17.08953302426651    0.59302941243639
O         -12.35297648560363   16.16252725936566    0.16596917698166
C         -15.38994301119686   16.18250966731514    0.44343824637381
C         -16.75881031438599   16.44419380990275    0.67430478528380
C         -17.14409458795373   17.70223839410379    1.22187613271141
C         -16.16640380229957   18.67668979093654    1.52715109310100
C         -18.51248852288117   17.95290257035897    1.45024800935817
C         -19.45628900355578   17.00818268052014    1.15139625342701
C         -19.07590125698103   15.77058723112625    0.61099728079882
C         -17.75583751482694   15.49431475401525    0.37778050828246
H          11.52758681855815    5.50198029066770   -3.12642333753678
H          10.55837856150503   10.13436652344079   -1.54441889413093
H          12.93845509233400   10.53265927228108   -1.27462843927369
H          15.26922258224075    9.74995285724490   -1.41408931499064
H          15.76894214127960    7.46996778861838   -2.19993910400661
H          13.94162637030427    5.95253282394353   -2.85081117834893
H           6.30362787329908    5.67719564058011   -2.56443046464551
H           4.05646537633793    8.86850633588656    1.14219551189952
H           2.26818129440685    8.06323118992140   -0.64216532820585
H           4.73480949758156    5.13559867922368   -3.64724639399985
H           2.69136464701933    4.37091490903438   -5.09948539935010
H           0.30447596459732    8.32421386832882   -3.39901071212235
H           3.00954214634269    9.56160207524093   -2.61802830867623
H           2.41117258247678   15.48978610149007   -0.95293092698847
H           4.32832020601573   13.96723651312530   -1.40383507825135
H           3.88522911090690   11.62066595019223   -2.10726321421002
H          -1.58431071623383   14.09255415492247   -1.33037951364771
H          -3.15197604252613   11.56136304053534   -2.13128789004853
H          -3.50211338988511   15.28889204972482   -0.83291190382114
H          -5.76398177420923   11.78869441071745   -2.01452266105287
H          -8.39651868069521   15.75334711447547   -0.36476584592473
H          -6.09310369050939   19.23970174963765    0.77440225216866
H          -8.65104225301396   19.43919773471801    1.09721857631625
H         -10.32518344939273   16.98840785838987    0.29092796020567
H         -10.93402156202132   19.77103040401760    1.45393495435799
H         -15.07652798552541   15.23533920148136    0.03020360347180
H         -16.49284169096164   19.61804863682150    1.93943184813072
H         -18.80059746599667   18.90722867571407    1.86616340526679
H         -20.50188798851478   17.20970005103215    1.32967172486736
H         -19.83409665329566   15.03725830295312    0.38054950590267
H         -17.45677222407427   14.54327263834243   -0.03781144635151
