107
 SCF done       -208.155940028205          0.000980339317
C           1.98689581060410    3.39498468505610   -9.81405367776033
C           2.19229978486159    2.10901930734816  -10.23500281742096
C           3.14080234459683    1.73838777079465  -11.21084066139081
N           3.89112808115452    1.38723272244793  -12.00489801055903
C           1.51909400228479    0.99310390273615   -9.69322355579680
N           1.04007362097794    0.05148327076489   -9.24488659273867
C           2.76164281567165    4.56683302899454  -10.19487892068737
C           2.35091004367079    5.66625849846027   -9.38494344275490
C           2.92727366740300    6.89944186196619   -9.50231558058936
C           3.95670213267848    7.09242458778745  -10.44994560073075
C           4.36492664912425    6.00004347451397  -11.26953618145857
C           3.75041467466005    4.73490431917512  -11.12720808483487
C           5.38975228828410    6.20608409537210  -12.21490431423598
C           5.98643850838130    7.43090625970772  -12.34452614980496
C           5.58506798354251    8.50521228128544  -11.53657759536806
C           4.59197766054325    8.33977353916373  -10.60949773300280
C           1.26750592745572    5.24180167459051   -8.48880386838735
O           0.63691204702405    5.94421629054105   -7.72138399937462
C           1.03133539365545    3.80759385640966   -8.80380909745145
C          -0.04407629548343    3.11395543711376   -8.34444175199550
C          -0.82188472604815    3.55456646064144   -7.23723410962057
C          -2.19563012024825    3.72965966109081   -7.17363316366650
N          -3.09697691160749    3.46538562947311   -8.21687900578845
O          -4.28391075450834    3.62530440041274   -7.99611519059968
O          -2.63643823898856    3.08565718496183   -9.28321793176520
C          -2.53921044395818    4.33692501581019   -5.92153786884421
C          -1.38892886503601    4.57128220736549   -5.23003499630447
C          -0.27897195122107    4.07369909229707   -5.98826237196786
C           1.04249796349529    3.95281095017836   -5.58591639268095
C           1.95526505359223    2.93017019579838   -5.94090940631195
C           3.09385703183300    3.08848854886634   -5.19739079774019
C           2.97954103504310    4.25642763346722   -4.38501901027639
N           4.02639037992661    4.65727091052619   -3.54763818463696
O           3.82165648565575    5.52162478056042   -2.70521411669500
O           5.10292943840435    4.09995174139944   -3.69159019939415
C           1.73067537129196    4.85332885945737   -4.62917728496291
C           1.19732631108831    6.12406411235141   -4.41213454947118
C           1.64085033234782    7.14169396004671   -3.59406195953501
C           1.03166971132700    8.39647925294035   -3.57807640597047
S           1.33750060605480    9.48343585310052   -2.24036087975851
C           0.16225667203011   10.64737928329934   -2.79348511436211
C          -0.36714767204196   10.22279526492982   -4.01398863315417
C           0.11961940883700    8.98068533769644   -4.48046667385911
C          -0.39598608390779    8.64961258255402   -5.75922498507884
C          -1.26431370353580    9.58047215215151   -6.23470090361354
C          -2.00065399375601    9.55694317651573   -7.52012575706096
S          -1.48648072310673   10.92294387502207   -5.13215197529835
C          -0.18198942024727   11.77459099658572   -2.01001838473821
C          -1.24343978297662   12.58849880165530   -2.29637296383937
C          -1.66675055827582   13.62296690816563   -1.43501329309838
C          -0.93130813102818   14.02453553484229   -0.35897189386830
C           0.47155590176726   13.46746307535518   -0.21001145688758
C           0.59826854330371   12.02206474246409   -0.72840514901580
N           1.97538232449886   11.64188763292405   -0.94391728493356
C           2.80070856831352   12.53207338970583   -1.27886773888751
C           2.42710473250112   13.95982325880041   -1.36714199303263
N           1.35654371783664   14.39910253480241   -0.87786929063758
F           3.25486382714521   14.77916098878398   -1.99722643371346
F           4.05577008354280   12.19518971062262   -1.52892592851412
C          -1.29335312787546   15.05484446268766    0.54907541745550
C          -2.54548750471701   15.39489753289403    0.97257285533610
C          -2.85513361305089   16.48901108058101    1.87840465766572
C          -2.04918299743410   17.56063224080726    2.16016959944548
C          -2.41485470516124   18.61447834019895    3.02448767878091
N          -2.65433796440344   19.49866401583882    3.71601687943563
C          -0.76482762200728   17.77987486396944    1.61713517381792
N           0.28196797853715   18.03441274013973    1.22042140165854
C          -4.20655851230248   16.28492645437601    2.38326807196668
C          -4.75423370138943   15.13134423086703    1.75311753157344
C          -3.77131798940882   14.55943587137965    0.82022970210394
O          -3.92528964178314   13.57753804332175    0.12542719867290
C          -6.01482880794300   14.68568010031577    2.03131675842973
C          -6.80033663418239   15.38625351494256    2.97302954963351
C          -6.25721302026924   16.53752591016892    3.61418469604764
C          -4.94921439009963   16.97591025081514    3.30406946460914
C          -7.04689780909102   17.22356120624681    4.55911827028384
C          -8.31240925919545   16.79574058629166    4.85637855811207
C          -8.84672124669332   15.66368386799464    4.22292661206069
C          -8.10709484786393   14.97428163976684    3.30055300567991
H           2.60524652206556    7.71873809540925   -8.87620189561751
H           4.07500809425034    3.92753987899433  -11.76454501327044
H           5.69654983271184    5.37553418946692  -12.83322784219518
H           6.77197441380441    7.57825174602575  -13.07014666848530
H           6.06684396103987    9.46443742203830  -11.65199952137622
H           4.27954026699038    9.16358538087189   -9.98449779425450
H          -0.38147353487272    2.22182835077489   -8.85893045168280
H          -3.54548076898116    4.56084628824301   -5.62296696885147
H          -1.32019293928964    4.94887135572607   -4.22752997026602
H           1.73602804867259    2.10744413771478   -6.59481908463065
H           3.95771327882024    2.44987114748391   -5.19056056012902
H           0.30370688590069    6.32221535546374   -4.98360597695460
H           2.44358924178374    6.96287960593025   -2.89190321250960
H          -0.11809337322430    7.78473897303492   -6.33417038504731
H          -1.67299610830146    8.71024976898598   -8.11810070989930
H          -1.83431467383086   10.47755206262218   -8.07843508346208
H          -3.07284028447356    9.46747200069796   -7.34383998287581
H          -1.82924810696880   12.40611302828310   -3.18320419162559
H          -2.59890858374169   14.11123344764314   -1.66349648972690
H           0.75875462587913   13.48730368348265    0.85064471710672
H           0.20857746416454   11.32879294255993    0.03021773740144
H          -0.45181753101316   15.57626465349741    0.99106761310456
H          -6.40655439889300   13.80840253729123    1.53817979333461
H          -4.56471207788279   17.84626872681827    3.81153702244889
H          -6.63224641459208   18.09537093282228    5.04337223558830
H          -8.90913537617747   17.32779944407919    5.58185869471759
H          -9.84675004436219   15.34029396950810    4.46982209785792
H          -8.51264156324607   14.10173735892805    2.80970612385379
