115
 SCF done       -213.457673375170          0.000519550441
C          -1.62801377804668    1.91881218209318   -4.90692261122222
C          -0.36029359751471    1.68337060898222   -5.37350546987195
C          -0.06585826972594    0.84968782009624   -6.47359612682180
N           0.24038472493604    0.18965788977087   -7.36113863495950
C           0.82106206155187    2.24663919796636   -4.84905731626456
N           1.81530207810447    2.68809212800050   -4.47725192172123
C          -2.85621187215977    1.36933098401952   -5.46870810784999
C          -3.96516529294525    1.89075998001841   -4.73957652051678
C          -5.25347115310969    1.55791464486042   -5.04529264671620
C          -5.49859982196292    0.66800210941841   -6.11472239351567
C          -4.39654133222931    0.13878867805021   -6.84710054667108
C          -3.07305649725733    0.50291182386663   -6.50736866563938
C          -4.65267275078274   -0.74827440456817   -7.91206727565316
C          -5.93506121487920   -1.09663344391218   -8.23983835007055
C          -7.01898451862769   -0.57494167575523   -7.51831167589637
C          -6.80550156896687    0.28872942790553   -6.47800194469174
C          -3.47187399358260    2.78698384634933   -3.68738239213698
O          -4.14320543273177    3.43372223886602   -2.90161351667724
C          -2.00479922622912    2.76611452816182   -3.78679934690184
C          -1.13081396003773    3.39494695735946   -2.94849797403245
C          -1.36697158537077    4.22525792682980   -1.83511209799319
S          -2.91743525577437    4.81286818685947   -1.32603598463047
C          -2.19370191293015    5.79688745168293   -0.09665199441910
C          -0.80821482068444    5.66715058008485   -0.08327613958460
C          -0.34504988872901    4.75567651676194   -1.03629490912993
C           1.09020078647283    4.34324138812952   -1.11853343550286
N           1.23418656439353    2.88042662314745   -0.73976386854588
O           2.25520174745700    2.56686268591913   -0.19189120678406
O           0.33668770859542    2.13417721990035   -1.03535409124069
C           2.01217987730631    5.16943553831926   -0.21712283173075
C           1.48237502068958    6.58207439016248   -0.01948123298081
C           0.13595628807954    6.50913645537558    0.70910575181981
N          -0.36277077292848    7.90107942937271    0.82985009662675
O          -0.11288774673845    8.48680812712160    1.85334670402679
O          -0.94064253445917    8.37310539770751   -0.12011414562314
C          -2.97549211852248    6.56223032871422    0.82108325144481
N          -4.14794324978719    7.19939088312664    0.51662683214713
C          -4.78381292264892    7.32774008295778   -0.77305923310947
C          -5.89763335518331    6.30301626120267   -0.96641159587630
C          -4.68122976130695    7.87966964375968    1.63650378303495
O          -5.69803259286723    8.53712403518177    1.60047063937354
C          -3.75116663753968    7.58698709200803    2.70000094964707
C          -2.71294027235734    6.77947599910571    2.17373635180292
C          -1.82447810043604    6.46665616765161    3.26881564818848
O          -0.82603675038135    5.76942943221735    3.32904096736857
N          -2.34709774049275    7.15728007006139    4.37215757212694
C          -1.69914541033122    7.02913637997455    5.65533852538750
C          -2.47512140656093    6.11729712106069    6.60203342778977
C          -3.50866337937333    7.82541105956380    4.04889515354462
C          -4.36325661098429    8.63214010952649    4.84358330351491
C          -4.19241255344496    9.07990095407909    6.11231748525570
C          -5.13711313289854    9.88420800292053    6.80484301272464
S          -4.75632817464684   10.44390856121828    8.40969045142474
C          -6.29452650777283   11.23082798016560    8.57778948245940
C          -7.04866930195957   11.06592937099732    7.41058116461253
C          -6.39319112418575   10.31562603409577    6.42411345059882
C          -8.31587459779615   11.63382444359580    7.17753012839201
N          -9.33293252962613   12.09211449456994    6.91318132677961
C          -6.59806255179793   11.89648826050203    9.78849878639616
C          -7.83005917029061   12.31819024623091   10.18154063271321
C          -8.00745170653801   12.97122886412533   11.42394155519442
C          -9.21471443893063   13.28069032952593   11.98036853228158
C          -9.44477285143582   13.99109466495310   13.22528358150361
C          -8.49456491623353   14.53519661158908   14.05152335625707
C          -8.78597410147549   15.22818754302472   15.24552725423604
N          -8.94862664019570   15.80019582285188   16.22760457140132
C          -7.10027154827225   14.49352577471912   13.84457527593806
N          -5.95528991114250   14.50551592713495   13.75262618165023
C         -10.88566006652169   14.04577173837966   13.44617965155081
C         -11.54008032981374   13.39533647168212   12.36140283577951
C         -10.53449457630479   12.88769156546340   11.41243078715036
O         -10.74561527289477   12.25115164246250   10.40343808879514
C         -12.89900827353832   13.28508332686152   12.29795694656081
C         -13.68362460344349   13.82939643369536   13.33905335341306
C         -13.03764359022334   14.48048985369610   14.42949948660522
C         -11.62815937614249   14.58112956846738   14.46609659737455
C         -13.82945406297805   15.01552998519668   15.46616514713879
C         -15.19330924208164   14.91238255742400   15.42956296440319
C         -15.82816392911219   14.27115013216151   14.35526392568249
C         -15.08948481520484   13.74186710857794   13.33192179245064
H          -6.07556291719477    1.96824432480557   -4.47784446955552
H          -2.26201401249189    0.08339234214349   -7.08092337911167
H          -3.81508096412822   -1.14728329952508   -8.46499114767856
H          -6.12086400090497   -1.77657371967294   -9.05753790142183
H          -8.02394432190593   -0.86055942177876   -7.79046560841634
H          -7.63618336986019    0.69357905455699   -5.91874005471525
H          -0.08482157563229    3.23920908466124   -3.16421791027027
H           1.43957836790985    4.37672516896219   -2.15917844878819
H           3.01358175556349    5.20127590450565   -0.64516528707902
H           2.08874401637010    4.68474596795264    0.75873709481049
H           1.34416631299567    7.07622549701322   -0.98479578546861
H           2.19167941925260    7.16166881574581    0.57228102565775
H           0.26284362758620    6.12787447722330    1.73370769629130
H          -4.02853820720784    7.24141185913647   -1.55619713232841
H          -5.21529341343594    8.33297427121554   -0.80161334707180
H          -5.50834217911550    5.28829560236750   -0.95257017920338
H          -6.38104961186305    6.47279572284024   -1.92391799681168
H          -6.63767039321409    6.41265810415973   -0.17766167155617
H          -1.53716062033221    8.01914241481580    6.08781262984745
H          -0.72120196436837    6.58561865417374    5.44543803889703
H          -3.48512400478541    6.48505642992322    6.76767235785680
H          -1.96161334048671    6.05815782129071    7.55766930154019
H          -2.53841635705571    5.11716275784495    6.18044823303144
H          -5.25273229060254    8.93032318466427    4.30401223719336
H          -3.30090470516768    8.84798306829847    6.67325241024208
H          -6.83447566292916   10.10006339408385    5.46770438870091
H          -5.76211171971675   12.03114894877167   10.46595521039145
H          -8.69937590189551   12.14209598331951    9.56609152589076
H          -7.10328555097294   13.23112044414911   11.96020810170603
H         -13.36832126139685   12.78599635584719   11.46322945254756
H         -11.17147726143257   15.07845074442122   15.30684302577473
H         -13.33606359145298   15.50845646260329   16.29100230440569
H         -15.79096220457761   15.32438384659737   16.22884645285313
H         -16.90540352813741   14.19854444936262   14.34285957430920
H         -15.57238242319300   13.24702290945405   12.50204869888071
