102
 SCF done       -191.643807674264          0.000863118875
C           2.62049410303121    5.24443724251356    0.66062093694806
C           1.81132950568886    5.99337761355444   -0.14978865993767
C           2.20372191378280    7.22092396594900   -0.72172245889434
N           2.49122340185629    8.21716557501215   -1.21248081141153
C           0.45761336707637    5.67044189543134   -0.38144554329998
N          -0.66174685084642    5.46324802000362   -0.52451507288440
C           3.89146341704789    5.68472517299474    1.22417134855712
C           4.11970822975277    4.96703404822888    2.43622970687166
C           5.21331133216497    5.21079955358248    3.21740222588352
C           6.14650880616052    6.18953944306896    2.80893584336895
C           5.93242909969089    6.89641470262809    1.58939232899687
C           4.78768693717621    6.62904182860342    0.80367162592519
C           6.87566903282109    7.86546699357499    1.19193495428930
C           7.97619897761444    8.12808846608216    1.96162066430065
C           8.18554926285701    7.43303285040583    3.16229633920686
C           7.29025295425247    6.48489770386161    3.57715204385858
C           3.03754966886452    3.99155185225807    2.63809944410992
O           2.85720075325181    3.24091934817219    3.56740763801475
C           2.22683122550715    4.04898818871239    1.37904114831787
C           1.44000567491715    2.98345810632198    1.08532244762591
C           0.91715708928319    2.53097605836819   -0.15316249395577
S           1.36632681741678    3.18876295911888   -1.69607803221117
C           0.26449394285515    2.14513321264603   -2.50650360436902
C           0.17427767134121    2.23315518752159   -3.96867868009637
O           0.85986317348211    2.96493099229390   -4.63838701981149
O          -0.74781474049029    1.39926150538300   -4.45776966839427
C          -0.92450342024480    1.43521284650082   -5.86784359059704
C          -0.41532472269525    1.32900761289412   -1.64102775926525
C          -0.01482515228521    1.49982964967235   -0.30445084517087
C          -0.57155303145203    0.69040873269164    0.75984864652631
N           0.15647094987550   -0.06261075481994    1.64166408289043
C           1.55737269235808   -0.40600015514381    1.54637956300202
C           1.82871934413788   -1.30097024828192    0.34039971918025
C          -0.69150447078852   -0.75226178267971    2.55043169701363
O          -0.28300581963957   -1.50344399254258    3.40891764972622
C          -2.01970494596855   -0.34106524508009    2.16735167140265
C          -1.91358794129622    0.52359698574823    1.05175898172837
C          -3.25653750671615    0.93231086272660    0.68245763228857
O          -3.67769537149380    1.60844785438328   -0.22457403573401
N          -4.08818457477645    0.30137740658593    1.64048480503140
C          -5.51789822640960    0.50633210864091    1.58224879551503
C          -5.96467128158292    1.63773553357565    2.50481116535060
C          -3.36384060122863   -0.45429743481234    2.52749814396811
C          -3.77202988133093   -1.24009028443897    3.63173481036870
C          -4.99482475122501   -1.32014721872266    4.22655182852537
C          -5.29299380296344   -2.18401121204622    5.30682701544884
C          -6.53244167618050   -2.77495763373465    5.53109670503689
N          -7.74729092125930   -2.53155363629701    4.86724516406815
O          -7.77494436176872   -1.69983713522417    3.97035973607345
O          -8.71958808694976   -3.16803995542211    5.23182437498330
C          -6.39002431358871   -3.81265881725156    6.51354460664332
C          -5.09231169959286   -3.87577049089151    6.90417014072445
C          -4.35891082303905   -2.80939657390346    6.27425945287554
C          -3.12821647887051   -2.30388511042110    6.62753549975709
C          -2.62537657911231   -0.98940694296368    6.28991203685536
C          -1.33617393420152   -0.89705616338791    6.67190932710810
C          -0.93639359842895   -2.16335392689050    7.24914896574570
N           0.34920748522542   -2.31861328479000    7.81216910718569
O           0.77005914097630   -3.43707226664763    8.04813493678452
O           0.96597963768626   -1.29487031639038    8.04386873501252
C          -2.02378752300416   -3.01134150374181    7.31399678048562
C          -2.12701654185851   -4.29609127872699    7.93432191386144
C          -1.23129773787933   -5.30302772226876    7.87031721951382
C          -1.45465203700281   -6.51945282390746    8.58106174341015
S          -0.28724812197289   -7.83140506022191    8.59805696891032
C          -1.43966908769663   -8.66879263412493    9.62551431365216
N          -2.51138245077924   -7.96695390988835    9.84745665008298
N          -2.52164646665845   -6.79465881701132    9.27733656146022
C          -1.18768922509985   -9.98627736830250   10.14144451923706
C          -2.05597178478694  -10.63227802912596   10.91558402151901
H           5.36388282042568    4.66478932156085    4.13675060882386
H           4.65149823240824    7.16995526976842   -0.11992516641521
H           6.70833349630395    8.40070272108151    0.26895376332591
H           8.69161797990850    8.87400361639425    1.64967878384032
H           9.05962031540759    7.65268508525405    3.75668942914215
H           7.44585860061425    5.94689236927517    4.50068236038937
H           1.23923280387381    2.34101588343217    1.93804968495630
H          -1.71792734305858    0.72698053615248   -6.09010982088754
H           0.00068636170929    1.15018037727645   -6.37306946927874
H          -1.20459658119188    2.44041946385503   -6.18809546753905
H          -1.15697615040803    0.62018997557544   -1.95968103137500
H           1.79315230505974   -0.93948869111271    2.47136512567848
H           2.17434851410200    0.49286391684008    1.49170667785078
H           1.22315515394831   -2.20268057164923    0.39548760127976
H           2.87642870932980   -1.58699443267000    0.32674339677021
H           1.59749358841658   -0.78046908317805   -0.58705425657022
H          -6.03544085698624   -0.42632281737383    1.81382175451196
H          -5.74020094582135    0.78189899444826    0.54712071334452
H          -5.64671651787023    1.46164377553292    3.53011796373557
H          -7.04764420050557    1.71544007762462    2.48507957590130
H          -5.53878140943296    2.57993509797086    2.16855645628624
H          -2.96201053260129   -1.84344384001857    4.02223890742224
H          -5.84402767584142   -0.79181648351386    3.82081282573195
H          -7.20379004465583   -4.42880698618517    6.84621162653744
H          -4.70734518085980   -4.55692308758650    7.63358221430850
H          -3.21820964202165   -0.20756052221140    5.85948752210952
H          -0.67525473052225   -0.05621781231890    6.58981673545527
H          -3.01114068751548   -4.47198543295550    8.53124988749003
H          -0.33475218260276   -5.23977970614594    7.27565945545830
H          -0.24059082926926  -10.42595341886783    9.86153915847009
H          -2.99533758310572  -10.17969972069485   11.18350382506943
H          -1.84836085214665  -11.61791622552544   11.29335304910919
