102
 SCF done       -204.439441694659          0.000852440218
C           3.89084524554299    4.39221207177488    0.45026581019541
C           2.80995421927558    3.76290108616077    1.00997824238070
C           2.80785694267177    3.24123606172960    2.32113773775097
N           2.75694852689578    2.80178277542140    3.37962424454768
C           1.60901158472971    3.49351996529460    0.32434395306674
N           0.61811360046836    3.24019089854406   -0.19903842512126
C           5.21586361915970    4.48626698881910    1.04983901972555
C           6.17192960953957    4.69578361286332    0.01116315101817
C           7.50840698124195    4.78999469371595    0.27569361361373
C           7.95435611121663    4.69014395253493    1.61256929759646
C           7.00143621335457    4.50283605413625    2.65673001643997
C           5.62440364646696    4.40047453530355    2.35350930359393
C           7.46004897260535    4.41824500715661    3.98698918382220
C           8.79496022680405    4.50951765984586    4.27418278211772
C           9.73211569825708    4.69073256006143    3.24585005850362
C           9.32098094442012    4.77867544350014    1.94339109714846
C           5.47614266805982    4.80219208553824   -1.28075982638989
O           5.94668096953766    4.91538312168285   -2.38644009836207
C           4.01930758629636    4.81542870064274   -0.93052876116296
C           3.11987486592431    5.28687358676573   -1.83121874659944
C           1.80597817039811    5.74775317896245   -1.57886377493501
S           1.27008456994213    6.38269625370157   -0.04017956713988
C          -0.36566355209102    6.64055529194118   -0.58487561468090
C          -0.44955409614824    6.34463756961177   -1.96062689405841
C           0.77597248831704    5.88295515586420   -2.49959588851130
O           0.66992892986486    5.64732437150911   -3.81598204998350
C          -0.60499044724286    5.98244939284973   -4.13781093246524
N          -1.02055505008401    5.86690575590078   -5.49022489749301
O          -2.17091112217262    6.18883284460192   -5.71837391960326
O          -0.21740768790909    5.47086452464609   -6.30129682501715
C          -1.33592552457042    6.41786377410603   -3.06160957641519
C          -1.40581290123264    7.08015025824623    0.24710627907646
C          -1.35936389574749    7.89342572525553    1.38649751004813
N          -0.23835437288238    8.27459007355701    2.10793772947562
O           0.82113565443402    7.67793220832278    1.88280698717708
O          -0.34385397125929    9.15787584031527    2.93635220053769
C          -2.68235033627452    8.33643556299601    1.70052587407125
C          -3.55360564086174    7.80363637938959    0.79914720254405
C          -2.83211265112020    6.94378366244804   -0.08886357386046
C          -3.37294612737376    5.94868950502025   -0.88246478489557
C          -2.80234078546343    4.66522509577780   -1.12585698729459
C          -3.75002262398169    3.88205804349302   -1.71169372468617
C          -4.94016723860240    4.65174987509369   -1.94336988363246
N          -6.05017287007291    4.05422774434155   -2.56680733034518
O          -7.11961343000445    4.64572643664360   -2.58480573941713
O          -5.88530036561187    2.94753297822931   -3.04530902340098
C          -4.73736893807623    5.95117159483972   -1.47140158612948
C          -5.40960012291150    7.17457205303989   -1.64678192254307
C          -6.64758365128987    7.41726548282987   -2.17592964468255
C          -7.16592071777951    8.71798690189135   -2.31167063394153
S          -6.29733426250406   10.14438201977675   -1.79386075415648
C          -7.57445991344524   11.19435920512054   -2.31679997478523
C          -8.63251472152420   10.44695846883423   -2.85993841359130
C          -8.39601107376647    9.07058232289124   -2.84925664579305
C          -9.85085294363850   10.98090709537941   -3.32419017288401
N         -10.87517952045421   11.34777727676520   -3.68395281733216
C          -7.41450012353837   12.58681247837370   -2.14717085319255
C          -8.21573057231970   13.56156892779507   -2.65973285825092
C          -7.93047470217935   14.92492787378825   -2.40933455257962
C          -8.58883291308555   15.97893401029809   -2.97143996871722
C          -8.35725016120591   17.39038682896609   -2.71597530678791
C          -7.41773350538687   17.93015908423533   -1.87510417276620
C          -7.24166368958727   19.31550803239312   -1.66870967319130
N          -7.04060623724465   20.42490345350206   -1.45349783878040
C          -6.48923532279417   17.20356191239767   -1.10068081861927
N          -5.70125748005022   16.68734849567004   -0.44355527047841
C          -9.30732461944510   18.14863961212506   -3.52071840693278
C         -10.10115000127845   17.23699613388835   -4.27491428013293
C          -9.68122188849856   15.85804322746799   -3.98226382737982
O         -10.11509096285954   14.84176989064624   -4.47668052196505
C         -11.07878271218507   17.66345288678849   -5.12734905253204
C         -11.31401601212264   19.04912939711801   -5.26724143943381
C         -10.52541575050950   19.96873711718449   -4.51595298055851
C          -9.51990793972950   19.49737367517172   -3.64175443049156
C         -10.76771330715195   21.34978978976536   -4.66367406123085
C         -11.74142577832408   21.80231299908477   -5.51196095066780
C         -12.51699283995251   20.89615575418732   -6.25093352977250
C         -12.30795553278261   19.54879689756433   -6.13135059054465
H           8.21716417501993    4.94099305311407   -0.52483945905145
H           4.92170636395184    4.27317768548333    3.16211250613588
H           6.73540169869494    4.27589387856031    4.77491063108133
H           9.13646352489326    4.44234585567893    5.29609089375211
H          10.78119589540335    4.76122970161504    3.49075962748427
H          10.03779779927288    4.91887334405654    1.14773965878505
H           3.46864558637411    5.36843332112948   -2.85676466743992
H          -2.35325488620902    6.74660076840001   -3.09989851754219
H          -2.91040936813354    8.96914829215569    2.53709778760701
H          -4.62202861260709    7.88563910638699    0.84116147413641
H          -1.83991424095963    4.33858096843006   -0.78224609597921
H          -3.66656383336713    2.84230094814938   -1.96679620714915
H          -4.84189547830137    8.04493814197408   -1.33660788820844
H          -7.27915167003549    6.60243014239214   -2.50048814838921
H          -9.09615280154457    8.34401606304252   -3.22221650784523
H          -6.54145678111985   12.88382992024407   -1.57626778854992
H          -9.06678511750258   13.31868120628427   -3.27835530864115
H          -7.12319958087542   15.12270078447890   -1.71537257327823
H         -11.66465924520368   16.94987200211311   -5.68731284838932
H          -8.94122087712663   20.21988027850199   -3.08870202419490
H         -10.16799658248311   22.04355663424242   -4.09302676600579
H         -11.91944358788534   22.86180350234867   -5.61833191111849
H         -13.28071931850262   21.27111299749986   -6.91554004100464
H         -12.90144849691256   18.84633213668669   -6.69772232558213
