98
 SCF done       -173.711144945166          0.000507738974
C          -0.02869063339233    1.57782340625875    4.68178363295629
C           0.77882128516616    0.47055093413181    4.68058888618659
C           1.05412100897627   -0.30782874126616    5.82538496030279
N           1.31950301442636   -0.98597345522828    6.71284371340736
C           1.46048612616023   -0.05743323969297    3.56401138151878
N           2.04987520382087   -0.55086420068017    2.71016920982125
C          -0.70766191280903    2.12237620420167    5.85313152129860
C          -1.41286342885408    3.29788424238837    5.46581068118552
C          -2.14553281028731    4.03012898296143    6.35489589260491
C          -2.21183085571533    3.60952844159854    7.70189901051403
C          -1.51301987872033    2.43291900900801    8.09857668969657
C          -0.75990429458364    1.69744962186664    7.15443604518273
C          -1.58873465717978    2.01966630276991    9.44414614014386
C          -2.31889330515512    2.73317979249711   10.35548988968611
C          -3.00587004304776    3.89185355972024    9.96388497296927
C          -2.95337161728972    4.32097979597037    8.66524687122022
C          -1.20938908050086    3.53210494062957    4.02990880419843
O          -1.66122539047830    4.45298521253276    3.37347014505696
C          -0.35868919778765    2.42927529414156    3.54992039887560
C           0.02245062035846    2.22254078578745    2.25394731642915
C          -0.25968593011887    2.96561099177726    1.08962025611539
S          -1.17725974031589    4.44784496762397    0.96923568393041
C          -0.95877859656379    4.49688814365776   -0.74299688367514
C          -0.20502508851481    3.40569134507115   -1.19609940923205
C           0.18731110612421    2.55734244254992   -0.16249907847467
C           0.11807521783212    3.19535199942545   -2.54923871254382
N           0.38265637803743    3.01590749751527   -3.65036672967250
C          -1.50812014492248    5.51448884069598   -1.57236005473714
C          -2.18534633611692    6.58568431598623   -1.11746124537900
C          -2.75777841355262    7.57523020780372   -2.00620760485857
N          -2.66214431143239    7.37058298798014   -3.32304971599397
C          -3.21098373041619    8.27717370425775   -4.10850219845034
C          -3.87128470096496    9.39105308937640   -3.61659021288167
C          -3.92142335440010    9.52878507371380   -2.22226595874307
N          -3.35309231480517    8.61734741468731   -1.43552710955646
C          -4.56108294306508   10.64420971169894   -1.54760335771424
C          -5.56234899277328   11.34590937754556   -2.08899131807989
N          -6.19215108736137   12.42709864067124   -1.49927136022553
C          -7.43825462824093   12.88940008676543   -1.87488167769580
C          -8.27196836235869   12.23759190066835   -2.90931104190461
C          -7.73000822003865   13.98981134859428   -1.12132542516014
C          -6.61817033294908   14.26344553509559   -0.24837303166793
C          -5.61686606553365   13.25017399424412   -0.46959376188101
O          -4.53433883850301   13.05791920109004    0.02660304586278
C          -6.89161470473841   15.38676018298704    0.47736684870252
C          -6.04670464703110   16.09812256088303    1.44926465465842
N          -8.16997625071415   15.80781421301424    0.13997777254074
C          -8.73573745288592   14.99426102339216   -0.90029893496576
O          -9.80032256061422   15.21439344143844   -1.42469459921333
C          -8.76813748678091   16.95846893309524    0.62172290252829
N         -10.02611858780515   16.96179317670468    1.15956899512100
C         -10.87197735751204   15.82420414864202    1.44625324300221
C         -12.09823643601487   15.78565551761396    0.54152000392067
C         -10.40913337847048   18.26660392888416    1.55374552716294
O         -11.46535981008885   18.50862741950754    2.10008497607609
C          -9.28282109060553   19.09325895144447    1.19808430568010
C          -8.27050587440976   18.24161792864320    0.64776499234987
C          -7.14676942028616   19.06840280539539    0.28325452809833
O          -6.05071814794546   18.80075416647470   -0.17286838846807
N          -7.56095973469530   20.37209240232576    0.60049131172232
C          -6.67511257322500   21.49539592982232    0.41409294255302
C          -6.02160756387279   21.92912212174730    1.72397767107317
C          -8.82455422892579   20.39668375511786    1.14827524714204
C          -9.48786958585326   21.60801135529010    1.54379733698351
C         -10.69061914306125   21.62033676268343    2.12050642189561
H          -2.66915204025630    4.91827292276700    6.03365018540101
H          -0.24443190153944    0.81142541421975    7.48870518982399
H          -1.05778251715759    1.12714097317486    9.74102212318205
H          -2.37093244140746    2.40821205304920   11.38377071594528
H          -3.57702944487952    4.44266793777232   10.69611536415425
H          -3.48031172618904    5.21235966070936    8.35769962716757
H           0.62748305998796    1.34635271354313    2.05319377510483
H           0.77474797102746    1.66760574776479   -0.31044302699344
H          -1.36731893562735    5.40397749761323   -2.64051486452977
H          -2.34048767046841    6.75688459279515   -0.06173918312093
H          -3.11442428340320    8.09842229855249   -5.17246095091578
H          -4.29574083683151   10.12764998380623   -4.27797347107025
H          -4.20017180835247   10.85607643679782   -0.55413814682317
H          -5.96559452177281   11.08203585661292   -3.05832364322673
H          -8.42662463717303   11.18402495728593   -2.67666920880563
H          -7.79731060899161   12.30456597019690   -3.88897167980436
H          -9.23316644135637   12.74234903194579   -2.95463847846706
H          -5.63539003068497   16.99062062422383    0.96856778849095
H          -5.22405114907125   15.45646940172572    1.75184350208512
H          -6.61964763508325   16.41960687626247    2.31777340999313
H         -11.19339800462977   15.91975029560211    2.48921598595919
H         -10.28038554391195   14.91242160865196    1.33715501119840
H         -12.67728022311635   16.69563393807639    0.67132710607229
H         -12.71745804612862   14.93277573345229    0.80519003207232
H         -11.79335507442397   15.69641794849758   -0.49716436865387
H          -7.22339934060256   22.32475977307455   -0.04129940752227
H          -5.90487738283698   21.15784341059090   -0.28515552539853
H          -6.77097292793072   22.22410807157118    2.45520497722744
H          -5.35780371367538   22.76990801608229    1.54308842420146
H          -5.43903219881742   21.10924079556028    2.13684623269208
H          -8.96596257700207   22.53494195766770    1.35045958704018
H         -11.22818558261468   20.70953164346297    2.32405570431602
H         -11.16350647084365   22.54538542464408    2.40178019591865
