102
 SCF done       -203.457307933064          0.000420677601
C          -2.97384828078357    0.94978136675695   -0.07064727035511
C          -2.97262641512594    1.44558543652555    1.20672925814932
C          -3.83378259513609    0.98938471226986    2.22409303338612
N          -4.52850785191257    0.66771454093262    3.07940051492645
C          -2.03821352231686    2.40078351305073    1.65697188297172
N          -1.26087963651005    3.14242731766972    2.06139828556433
C          -3.68348983457974   -0.24283659435530   -0.51717458171445
C          -3.02874908855858   -0.74657829123650   -1.67995807472495
C          -3.44765308101918   -1.88941417807916   -2.29781297224060
C          -4.56653262547204   -2.58154421114035   -1.78145164332924
C          -5.23583183561839   -2.07173658495541   -0.63104673020647
C          -4.77311663997091   -0.89196920609914   -0.00387910193349
C          -6.35696189298611   -2.76673629561255   -0.13418883069593
C          -6.79579963645399   -3.91230026158544   -0.74037261240935
C          -6.13476484972955   -4.41508743838786   -1.87094195776911
C          -5.04368808877284   -3.76434653875829   -2.37983813285982
C          -1.92335129351696    0.15630094707010   -2.04877265388101
O          -1.11344827058356    0.02812874852171   -2.93684207805141
C          -2.05678895009606    1.32334838878535   -1.12689206210243
C          -1.46830104571818    2.50173959450355   -1.45886751341091
C          -1.76928179734682    3.81834008662625   -1.03104488323914
S          -3.27031974539130    4.27781962632036   -0.26821063115069
C          -2.82689435806920    5.95397003796096   -0.24653227414560
C          -1.55733380660288    6.12980385974881   -0.80636612677421
C          -0.98584261534155    4.93226814933845   -1.25747803451884
C          -0.85922384901967    7.34956695991185   -0.86661762774918
N          -0.23178859881922    8.30841410228365   -0.91296162140932
C          -3.72806237725924    6.89618049460889    0.30758488915176
C          -3.64966450012524    8.23838378568567    0.11327959135619
C          -4.49380512540891    9.25423305947344    0.62711812349445
N          -5.37386887426103    9.22139555597511    1.69120545779202
C          -5.56054599988698    8.18022061636282    2.67538674050135
C          -4.30808269042386    7.94364198515455    3.51331434425243
C          -6.01610656784964   10.45860567832437    1.86705054318664
O          -6.82189385765676   10.67647042786369    2.75731762253193
C          -5.50710488277763   11.29498593559089    0.80858955776888
C          -4.56925519060109   10.53132657052423    0.07812319998406
C          -4.07850475890340   11.34093009202750   -1.01828016482321
O          -3.30223976053905   11.11444446159659   -1.91781874632915
N          -4.75496901614140   12.57114454851682   -0.85986108983623
C          -4.49660136496782   13.68359750773830   -1.74113185660846
C          -3.55035565120971   14.70013587156421   -1.10722691450372
C          -5.60281476853076   12.55948596091024    0.21847384382203
C          -6.42027985944331   13.64675150246468    0.60667530500933
C          -7.23442906802789   13.55857952130200    1.69115578397874
C          -8.10195528240201   14.57456342294012    2.14643922027774
S          -8.21163743962049   16.13398860248387    1.39090688360369
C          -9.43528990257431   16.64789084188481    2.51007302056639
C          -9.71334528404360   15.65554469740528    3.43858564798600
C          -8.97965903014637   14.48195350957016    3.21999681479587
C          -9.11738827463938   13.25079401960215    4.05910797826263
C         -10.38478690760122   13.28611339535443    4.90600434465715
N         -11.57677403427186   12.90984949156600    4.07777556932274
O         -12.61293396451716   13.48273906589583    4.31136205541383
O         -11.42361001658276   12.04166158183712    3.26338734797089
C         -10.62473453021609   14.65068386388966    5.54538839253490
N          -9.52230198907672   14.94964264353291    6.51769349922323
O          -9.35823601876011   16.10215239866107    6.81789386433537
O          -8.90510378964885   14.01286379911048    6.95614644288204
C         -10.74311737885390   15.77592313449746    4.52159322728983
C          -9.95221933607031   17.98331480145766    2.44574531069228
S         -10.12377414966499   18.93564063529318    3.88691316529281
C         -10.57953437816055   20.32878076054414    3.03053336859037
C         -10.61431863844415   20.10548940170674    1.67324431923245
C         -10.26189233620230   18.75446759854091    1.32391105471459
C         -10.34689672586221   18.38099667705663   -0.03963785446530
F         -10.13135978397830   17.11168423710196   -0.41388120952370
C         -10.68802240205481   19.30219397765069   -0.99297681639133
F         -10.76524605389346   18.94867583452517   -2.28044707444244
C         -10.98460859956195   20.64755724340285   -0.64684281298821
F         -11.30390454813857   21.50095091727281   -1.62433641500420
C         -10.96000239040127   21.03608621762376    0.66135254515468
F         -11.26611573405917   22.29025616837410    1.01862191858971
H          -2.93337454640942   -2.26158936553967   -3.17135909151726
H          -5.29999802242353   -0.52112915570280    0.86178583862312
H          -6.86047600441199   -2.37761467725137    0.73856702153590
H          -7.65499044722382   -4.43787153500515   -0.35146478639147
H          -6.49447112624964   -5.32021651650177   -2.33685429630496
H          -4.53084903648594   -4.14674647186610   -3.25019956132739
H          -0.71493654752195    2.43618232196220   -2.23877928559995
H          -0.01209456664399    4.87876452578372   -1.71190660442172
H          -4.54172723286196    6.46564180827567    0.87196642902940
H          -2.89605833801209    8.62370627488719   -0.56179965957686
H          -5.89356748511143    7.25793192517278    2.19248297378819
H          -6.37117647064005    8.53687225536461    3.31866720630360
H          -3.47542703827184    7.61369621750743    2.89693226532362
H          -4.50857252407778    7.18329253800305    4.26289520801661
H          -4.02081405325287    8.86239757621794    4.01885404423894
H          -5.44250483469158   14.15401173486740   -2.02380146805379
H          -4.03213427911220   13.25821869400462   -2.63514401616583
H          -3.97195995630769   15.10728923566210   -0.19071678852096
H          -3.36803371191385   15.51532081491714   -1.80170500057650
H          -2.60122953460733   14.22533328839175   -0.87154544148483
H          -6.39831568045458   14.55376794603536    0.01890683965828
H          -7.23614098933777   12.64110263586964    2.26386477493791
H          -8.25042727006688   13.15113775405542    4.71875117898458
H          -9.13581819589688   12.35793228459976    3.42924267986244
H         -10.31311747295594   12.51373657949057    5.68246294005464
H         -11.54253049962048   14.62464417332164    6.14730866564327
H         -10.63619858376847   16.72518268055181    5.04882259895457
H         -11.74484552472967   15.75265993069786    4.08273076056398
H         -10.80358658798190   21.23987422370028    3.54716897537060
