125
 SCF done       -229.552998764407          0.000675122072
C          -0.63048309143763    2.99062384921665   -5.81487167575567
C           0.59723224320842    2.38163615698633   -5.83168453456800
C           1.11421135203274    1.68551712243144   -6.94490223208634
N           1.58761362266935    1.10949356777202   -7.81730335568654
C           1.53026646546962    2.40926167281596   -4.77367593859402
N           2.34528070662942    2.42384699555312   -3.96388706754125
C          -1.55674995127354    3.08179809147451   -6.93697460788986
C          -2.63863862313118    3.93328813677900   -6.56539358983004
C          -3.65859424019143    4.22441882999614   -7.42495301965817
C          -3.64708395951377    3.66198919268921   -8.72071865989329
C          -2.57454364206075    2.80259871285853   -9.09819161525979
C          -1.53012577595501    2.52210690856325   -8.18687668230161
C          -2.57607741026935    2.24468278468145  -10.39261308385144
C          -3.58612893893350    2.52230728872116  -11.27351650757891
C          -4.64054542831033    3.36923949743322  -10.90110104034961
C          -4.67042277640735    3.92717959172764   -9.65158826354897
C          -2.44197731741572    4.39216307821047   -5.18461013777044
O          -3.15369720885239    5.15248660075091   -4.55444151062420
C          -1.21336228861966    3.73304721098658   -4.70936724182251
C          -0.74345446977987    3.72628231647334   -3.42791071067985
C          -1.18937612005121    4.43498167253658   -2.29347348772922
S          -2.42318390958975    5.65482562915750   -2.27343526137836
C          -2.14007028446149    5.98549806390922   -0.59440915322800
C          -1.11067862660089    5.19567573705145   -0.07970094790562
C          -0.59905144097476    4.30642734389603   -1.02412054952146
C           0.39853052021052    3.23724119850329   -0.67661414555161
N          -0.37279336515181    1.94710555143916   -0.78468254164912
O          -1.10904700797519    1.67086644081587    0.12703388738444
O          -0.23192869909474    1.30687866463861   -1.79373495488923
C           0.94298854289801    3.37099433473673    0.74597762911466
C           0.97558965034122    4.82323986468329    1.19737782980870
C          -0.45477213025646    5.37463895952953    1.25511626511512
N          -0.31775527021529    6.82099550367889    1.57637526644497
O           0.04340781932924    7.55410780195335    0.69404958462989
O          -0.53055557536977    7.14587303706303    2.71983893790219
C          -2.99965996890885    6.94514022304397    0.00171018447424
C          -3.31891150285703    7.09425151813797    1.31535766111798
C          -4.25873424696100    8.07125897341639    1.73059330885982
N          -4.67700335445883    8.24629887939595    3.02480489335746
C          -4.23102373044712    7.53287080415541    4.19833154582714
C          -2.92838032465677    8.10187300785204    4.75306158957838
C          -5.62924078323469    9.28330857278891    3.13778950447954
O          -6.14647957268959    9.61264223902638    4.18251430819120
C          -5.79196243707869    9.75809581775582    1.78106238261372
C          -4.94985868113888    9.00265521320235    0.94371097505904
C          -5.14388712877673    9.48241649095619   -0.40756005897054
O          -4.64720506121283    9.15169628414491   -1.46575354208186
N          -6.10063872207916   10.50764894725501   -0.29274622501028
C          -6.53972879000223   11.18942113521794   -1.48777023251994
C          -7.84919599414882   10.61343422898461   -2.02224044511018
C          -6.50812417435289   10.68305689048827    1.01089298455605
C          -7.43473335598147   11.58789379272513    1.57143285792468
C          -8.25076650442555   12.48409189633478    0.94596808925069
C          -9.13371030872122   13.36739508663894    1.60517886453744
C          -9.96256365825267   14.26784002618363    0.96116098129311
C         -10.68861624847760   15.01635453750745    1.92251595849453
C         -10.25525327197240   14.50816133595205    3.24046725027786
C          -9.33620670306862   13.52906762574228    3.03999526829070
C         -10.70466574905831   14.94670462020635    4.49168254879638
N         -11.05257107545043   15.28870907245678    5.53150352038670
C         -11.59368903713609   16.02642903597042    1.67845622346913
C         -12.26911760444754   16.84668684192286    2.63291749453112
C         -12.99845997796827   17.80535450144256    1.96491198558898
C         -12.86390975988646   17.55799790119090    0.53609807387178
C         -12.02868829118625   16.49956132416222    0.35714725108153
C         -11.69309364337048   15.95203660583042   -0.88561359403915
N         -11.43958081318509   15.51620355973995   -1.91830613355299
C         -13.75901390467213   18.84736193052538    2.56532554237251
C         -13.92259477026708   20.09182030103111    2.03715250184313
C         -14.78604280372561   21.15502937513036    2.51820734504569
C         -15.78887937653928   21.02723313466513    3.44298604625680
C         -16.61995794472650   22.08861779171795    3.85861978608881
N         -17.32433197333743   22.91236827838800    4.23672015107526
C         -16.14771487303697   19.81972113003847    4.07863541355416
N         -16.50590039209534   18.87085059666915    4.61658798722508
C         -14.45405126969077   22.36679948784705    1.77866505543235
C         -13.43175735043863   22.05998314184484    0.83495270108545
C         -13.05855252586223   20.64273524158706    0.95595125265609
O         -12.17442288738636   20.06779014607110    0.35737819660788
C         -12.92057878776755   23.00257718010057   -0.01018967272398
C         -13.42216684457951   24.32172898701625    0.04648819475866
C         -14.44224412657048   24.63905930315826    0.98976503114554
C         -14.94808097040558   23.64246225887953    1.85575991822957
C         -14.93367896965784   25.95950873454065    1.03851095019128
C         -14.44367966593326   26.92034991130788    0.19630407213108
C         -13.43949813190878   26.60648467741501   -0.73180856772855
C         -12.93955280940430   25.33463365292677   -0.80527037274519
H          -4.46361542521139    4.87617910629897   -7.11961343100909
H          -0.73489050010468    1.86516672617807   -8.50164481236957
H          -1.76166706817174    1.59426212905540  -10.67577593190166
H          -3.57764708012190    2.09054685952995  -12.26298090998605
H          -5.42902317605929    3.57733214476723  -11.60865938334805
H          -5.47954370630137    4.58006769430044   -9.35879478291728
H           0.10092150934832    3.07645855359616   -3.24829356005322
H           1.20073766327395    3.18147288598477   -1.41830026032947
H           1.94578148479293    2.94687075667723    0.79567026982680
H           0.29560183817774    2.80572706496815    1.42180938490920
H           1.55595099647341    5.42220754223996    0.49122204275466
H           1.44033804859726    4.89433250168942    2.18183209084838
H          -1.01283688703494    4.90766948627965    2.07386065409874
H          -3.50446338547814    7.58094784473443   -0.71592167138744
H          -2.90403424708338    6.45359721438893    2.07875806721865
H          -4.12724680184459    6.47051209841816    3.96319151174674
H          -5.02585782830830    7.65234565583056    4.94052449682911
H          -2.11379945212854    7.99704424808408    4.04109165586684
H          -2.66077522685752    7.57587888034385    5.66504402714513
H          -3.05642889999800    9.15576758533366    4.98643135944621
H          -5.75072005685923   11.02778923540083   -2.22877190854586
H          -6.61532278007990   12.26107078749490   -1.29202861971434
H          -7.69979268761514    9.57759048284028   -2.31672195428575
H          -8.17213496554198   11.17846737509707   -2.89216010568990
H          -8.63452032094560   10.64644929897730   -1.27022321543330
H          -7.47714782529267   11.51494163217351    2.65066300341147
H          -8.26801323514017   12.56282469947751   -0.12980707188293
H         -10.04163474388819   14.39449687775160   -0.10063663301316
H          -8.83797151052172   12.96578802122067    3.80661501503481
H         -12.16042501413314   16.76707811790666    3.69738185650371
H         -13.39130450794573   18.08310541931499   -0.23628589587714
H         -14.19198646957731   18.61877366511444    3.53167113387246
H         -12.14507785776587   22.74301656633584   -0.71559045660297
H         -15.71469398807616   23.91639125331293    2.56311222649046
H         -15.70725486600925   26.19661442386263    1.75402981391021
H         -14.82756917762700   27.92846791121228    0.24064658312690
H         -13.06404068066773   27.37723899679363   -1.38810388665249
H         -12.16626368545743   25.08647859566560   -1.51750459200552
