117
 SCF done       -209.450999723980          0.000894609953
C          -0.09050179433782    2.47516454477382   -3.18099878992072
C          -0.71886769356633    3.67420036695660   -3.38065892909368
C          -1.92982467101686    3.82591509039834   -4.08826322328489
N          -2.90596526824037    4.00240273649582   -4.66561693041809
C          -0.20486332257587    4.91959243980138   -2.96616848593711
N           0.18899752402004    5.96666028300283   -2.70689190216582
C          -0.46759645078337    1.21324381703866   -3.80514972223757
C           0.66437703079461    0.34540420705669   -3.80290725259079
C           0.61539278353597   -0.89760349435665   -4.36604677161733
C          -0.58971177095246   -1.34030860379387   -4.95570361969674
C          -1.73033487978855   -0.48569119554310   -4.94244105465414
C          -1.64930379252329    0.79912218193617   -4.35824980981449
C          -2.92820627515282   -0.94474339763078   -5.52744435696819
C          -2.99739646258978   -2.18454384475655   -6.10186296346043
C          -1.87334008930639   -3.02411021855310   -6.11639433989201
C          -0.69561779679750   -2.61090539591673   -5.55563049099685
C           1.78640873575063    1.00432797057285   -3.11158579032567
O           2.91851447379434    0.60605607723101   -2.96904703023644
C           1.20636107620879    2.26202441918714   -2.55353208687061
C           1.82047501929959    2.90789377665401   -1.53625047684714
C           1.19593953454937    3.87403034850333   -0.68033271414172
C           1.87625543371116    4.96892743314394   -0.14250452509908
N           1.26516437778835    6.05938866430253    0.27547948090486
C          -0.05576986155440    6.09113721560965    0.33309918593525
C          -0.81645665629624    4.88059811894048    0.26701342954414
C          -0.18675677238677    3.77514391432112   -0.36068120744885
N          -0.90294520833614    2.66876979185296   -0.62501578551033
C          -2.16456717993582    2.66264779411742   -0.29051571763047
C          -2.74722762942845    3.72482339910323    0.42614864785467
N          -2.06686370360452    4.80007431635622    0.72401700066575
C          -0.78041080552340    7.31325761287071    0.16907651625620
N          -0.42690966427909    8.56667340908005    0.55278169767304
C           0.67673413036427    8.90133355014747    1.42033997499334
C           0.37484133375403    8.52793653814012    2.86819182136925
C          -1.32357708964179    9.53279599639746    0.04930716972146
O          -1.22475578579618   10.71926542009905    0.27883777635687
C          -2.26868296460384    8.76820827706533   -0.74324057636656
C          -1.92325267668633    7.40297675557311   -0.62413243956877
C          -2.75229908632032    6.64277748716518   -1.53757816884506
O          -2.78098641720413    5.46248954590235   -1.83048237185886
N          -3.58754784163159    7.60412356043350   -2.12129455768207
C          -4.58221559783939    7.22699566394693   -3.09775574088334
C          -5.97850450966505    7.15516668399097   -2.48530809126118
C          -3.30875198889727    8.87690506432390   -1.67413842880463
C          -3.96816319797165   10.03423061257158   -2.13852873750322
C          -3.62341579775022   11.29136740086067   -1.73183830800403
C          -4.23465006285058   12.47815347715604   -2.19118198844074
C          -3.81868062487310   13.76325965828055   -1.88918983590003
C          -4.65698345087861   14.69884231289282   -2.54884883774509
C          -5.66162422143765   13.89987150104517   -3.28009471958568
C          -5.39320190947875   12.58605184991329   -3.06938760053783
C          -6.71188067403610   14.37816318875157   -4.07166509162758
N          -7.58704322488409   14.72554214695404   -4.73006056224649
C          -4.55337647912159   16.07438327330045   -2.55785471155460
C          -5.39660374243840   17.00369036075059   -3.22570131255951
C          -4.90921426995428   18.28335689856345   -3.03745202366202
C          -3.71510135291354   18.18419768129921   -2.20729636784598
C          -3.50177582063374   16.87721585503739   -1.90556366692500
C          -2.44811251465217   16.40326945803187   -1.11457267654502
N          -1.57063634996278   16.05822938708258   -0.45885873542729
C          -5.46659756710009   19.46681014815548   -3.57395465038246
C          -4.89694906660354   20.70260397732786   -3.48635168858406
C          -5.49180650159417   21.83820619804472   -4.07580922968022
C          -4.92378450569925   23.08213482493539   -4.11297394268887
C          -5.48172287480878   24.27289539174260   -4.72484516402518
C          -6.76303839472518   24.43668338206665   -5.18620352926042
C          -7.24977403583351   25.63044804549363   -5.75883422115530
N          -7.70910931910336   26.56845715579463   -6.23552466890453
C          -7.78377435722062   23.46475532587346   -5.13203765496604
N          -8.67070003007107   22.73523500328172   -5.11499481508441
C          -4.44569420168380   25.30001447403064   -4.72453869201230
C          -3.30033907503145   24.79100839299747   -4.04816876210129
C          -3.56273243437932   23.41035662417866   -3.60866279119858
O          -2.81108552700591   22.69563095423042   -2.97870200783631
C          -2.16455586757038   25.53225354820210   -3.89307681991343
C          -2.11740821576239   26.84002373931403   -4.42547814823471
C          -3.25678758523101   27.35494142157753   -5.10877741826850
C          -4.42166547054974   26.56576430151690   -5.24767370555266
C          -3.19629823849461   28.65796862210086   -5.64333579018185
C          -2.06533729905655   29.41686646831094   -5.51140742456054
C          -0.94406727760991   28.90885697455694   -4.83844551611611
C          -0.96989517762255   27.64831041230822   -4.30609090630293
H           1.48576960675120   -1.53688284527558   -4.36169591048608
H          -2.52766350121880    1.42590857960423   -4.35240788106189
H          -3.78978642304964   -0.29333382690667   -5.51771494443519
H          -3.91886750095531   -2.52551278731631   -6.54963590837503
H          -1.94563381811084   -3.99934109043679   -6.57407269762127
H           0.17327456950258   -3.25261777137559   -5.56383598815245
H           2.84674045961728    2.63102738422310   -1.32305170135178
H           2.95475758101766    5.02805523470410   -0.18983392877405
H          -2.72423223184013    1.77045627153362   -0.53560541247499
H          -3.75970275348925    3.66649315365570    0.79834886065812
H           0.82231973799967    9.98080379672089    1.33073719017154
H           1.56578138259030    8.37410505086324    1.06812424193559
H          -0.51193644947060    9.05165623737187    3.21771257830027
H           1.21351676924801    8.80289588025542    3.50110667521528
H           0.20727401274924    7.45666985937883    2.95605524244476
H          -4.28808546116324    6.23906996030581   -3.46468415031550
H          -4.55703728629753    7.92980414971350   -3.93486997742757
H          -5.99577016194464    6.41619408160448   -1.68808222073628
H          -6.69762856262240    6.86289430134227   -3.24534459489857
H          -6.27563111061539    8.11624685026962   -2.07056572753782
H          -4.75952694448077    9.90101070477064   -2.86152410545514
H          -2.81311653342482   11.41355297494374   -1.02488276238152
H          -2.98441710780322   14.01332349862130   -1.26341868314148
H          -5.95090119030825   11.76226946890896   -3.47433904244853
H          -6.26724155589357   16.74487176542138   -3.79604122282747
H          -3.11377889003858   19.01246251987847   -1.88307017283542
H          -6.40239556130786   19.35524237464566   -4.10948198988487
H          -3.95430788562786   20.83688555427170   -2.97832259037938
H          -6.45369723997507   21.68875394847623   -4.55056370234763
H          -1.31002155299785   25.12316036859120   -3.37464784416059
H          -5.26504612667281   26.98328774420290   -5.77425713924111
H          -4.06239979809350   29.04485990098469   -6.16002221999434
H          -2.02837199650101   30.41331277953477   -5.92554016374110
H          -0.05963575782640   29.52108736501847   -4.74446334995641
H          -0.10953374815918   27.25165779157655   -3.78710438268126
