115
 SCF done       -221.892960605964          0.000739042706
C           5.44094489256341    2.28693086895372   -0.89695605234904
C           6.41121894280360    2.62386241040532   -1.80049115260061
C           7.69935757179112    2.04795114943693   -1.82758991068371
N           8.75952199279853    1.61481758266498   -1.89738907693756
C           6.21755881925350    3.54428312845294   -2.85226148099352
N           6.08707923252343    4.26683918014831   -3.73498775782077
C           5.53607433014169    1.27802769964726    0.14707732970498
C           4.24115934274753    1.06528500611845    0.70782461240200
C           4.03444151607962    0.17296359897370    1.72014919310772
C           5.13221610901891   -0.55393139912168    2.23190868593657
C           6.42944579752809   -0.34582700014887    1.67750385664652
C           6.61373919585662    0.58023586062622    0.62673645596842
C           7.51661487020499   -1.07691612350005    2.19893114863335
C           7.33428661204681   -1.96983382078829    3.21944257013353
C           6.05765835181896   -2.17305752478358    3.76538815139227
C           4.98043426152078   -1.48107317758360    3.28189415728196
C           3.26781072500150    1.93065469636500    0.02811002273890
O           2.06084716767243    1.88034366017781    0.06279786141194
C           4.09719501614524    2.84045036906743   -0.82657970756811
C           3.65999747256515    4.01487309714162   -1.32540505120453
C           2.38479923546473    4.61234544353950   -1.04902712272465
C           1.74832638812458    4.81853696560679    0.15453539040551
N           2.16744755223031    4.44886515157132    1.45262637158984
O           3.27578708823856    3.95836200192947    1.59545430053862
O           1.39940890005411    4.67088515271256    2.36607292938503
C           0.55095244837517    5.60577744830736   -0.05908230918655
C           0.48158038558636    5.94174561777921   -1.36479586292779
C           1.60670678662858    5.35293168988878   -2.05645463766925
C           1.87038778319083    5.36213594477294   -3.40390592545147
C           2.55059214486100    4.32487775794620   -4.12437308721887
C           2.33452295651523    4.50079958563262   -5.45437868477722
C           1.59558009413069    5.71734966092372   -5.65058127500498
N           1.27485833043048    6.20644503719881   -6.93345915183078
O           0.67860912925018    7.26746297396720   -7.02291111868294
O           1.60677747518120    5.52581295815001   -7.88544967544200
C           1.33549579150285    6.30408064905632   -4.41692643820461
C           0.86320620928611    7.61304981145428   -4.19268151916627
C           1.06542119214675    8.32466919074465   -3.04697950535795
C           0.62705669480285    9.64545551430467   -2.83771002765006
S          -0.14556085827054   10.66326631492311   -4.03425519922759
C          -0.26943051115699   12.02667539248122   -2.93656142873170
C           0.24979723379389   11.66978024993202   -1.69632272907642
C           0.74838601628090   10.35801675503963   -1.65699372810509
C           1.27628090927559   10.07581191306197   -0.31303995750262
O           1.77811488801310    9.07652593424366    0.13184781093366
N           1.06302991891985   11.26048172608707    0.37918491862422
C           0.45619545747725   12.26703324659778   -0.36240881690656
O           0.18525824704767   13.36085229540232    0.06284042102279
C          -0.79812519920253   13.24300063376926   -3.42114264231517
C          -0.95091762126637   14.36577652768087   -2.66521886206162
C          -1.40261972419401   15.60935837849493   -3.17134820540650
C          -1.67247714312504   15.97613338874004   -4.47471604666194
C          -2.02581712275037   17.35504960887401   -4.51114757025468
C          -1.98766514624836   17.82443722558821   -3.11106557663538
C          -1.61045719210859   16.78153946865474   -2.32921307107454
C          -2.28468618534999   19.11320930453291   -2.65218875461725
N          -2.52469234202573   20.16081153466114   -2.24748538769779
C          -2.28801933890071   18.12007866548726   -5.62482255542299
C          -2.55893642887705   19.51637369926110   -5.68114741287818
C          -2.67383451820464   19.90771125425569   -6.99971871696517
C          -2.49897955167189   18.72086195387808   -7.83311278372268
C          -2.27721351227424   17.65259696698291   -7.02745407177353
C          -2.07913604447355   16.33877370546458   -7.46878112018591
N          -1.92258252382357   15.26810330575335   -7.85406416094857
C          -2.89132870813705   21.22867129164817   -7.45805781660152
C          -2.88611925474461   21.59933604989029   -8.76946649455197
C          -3.06755019647260   22.94261906454525   -9.16813067252127
C          -3.00169219273757   23.37893561547934  -10.46165727770235
C          -3.15512774360308   24.74447844949717  -10.93154304015091
C          -3.53597860910120   25.83157531005363  -10.18754680042757
C          -3.67534759607617   27.13590117026732  -10.70839008643786
N          -3.80697266826546   28.21871694021667  -11.06582049774570
C          -3.86182966162951   25.81589946586152   -8.81499117811187
N          -4.14791948300515   25.88529944198738   -7.70502482803260
C          -2.85920200472947   24.75962466938408  -12.35965088703806
C          -2.58626532571981   23.42738971206898  -12.78380595135220
C          -2.68672492244339   22.51499014333440  -11.63525416242811
O          -2.53450071055452   21.31135104532766  -11.64923720819825
C          -2.27442825699499   23.13047033303948  -14.07970033506198
C          -2.21451181691247   24.17357725050660  -15.02997126299086
C          -2.48182887366661   25.51023702246978  -14.61378584079123
C          -2.80594909747825   25.78620898099560  -13.26567388089052
C          -2.41444244298631   26.54480042869083  -15.56906610471683
C          -2.09799768463027   26.27400769481598  -16.87260677017983
C          -1.83519567385081   24.95774429238247  -17.28108776303902
C          -1.89273157277356   23.92958410262064  -16.37955799732300
H           3.04686702798513    0.03077745356353    2.13256335453254
H           7.60755414046849    0.72498583539664    0.23243253062957
H           8.49720768251159   -0.91707822638187    1.77523338107030
H           8.17313901938439   -2.52420310438889    3.61269349328130
H           5.93258776065635   -2.88045714140769    4.57138628474875
H           3.99580780477299   -1.63332751609559    3.69872850053152
H           4.30657233539878    4.59942871597075   -1.96899708003052
H          -0.13310521760040    5.85514016400435    0.72884338215858
H          -0.31659883081336    6.46687714205711   -1.85156646259380
H           3.02352901391809    3.47793938724255   -3.66806559155930
H           2.65067713256061    3.86404169650367   -6.25896553673620
H           0.38678576726008    8.10177661223466   -5.03486906511442
H           1.61831059427374    7.90351804751815   -2.21759507073623
H           1.32211251191986   11.38515717898286    1.34784396895535
H          -1.07574902162773   13.25260699311291   -4.46643495510093
H          -0.70079385878412   14.33405122138047   -1.61306891763436
H          -1.60481044364406   15.34863871548182   -5.34051608122856
H          -1.48034163809339   16.79098446722109   -1.26283897850755
H          -2.63595893687895   20.16082490340033   -4.82735326912980
H          -2.54739203285791   18.70273675569877   -8.90554171835836
H          -3.04653947644173   21.98240964055049   -6.69500680418173
H          -2.72101473172510   20.86724390908634   -9.54513992160487
H          -3.24939535949943   23.66102974062446   -8.37879474164653
H          -2.07290738586304   22.11125426823673  -14.37443156300536
H          -2.99941527653846   26.80892759299908  -12.98408012637144
H          -2.61793583294762   27.55649257132158  -15.25022356525407
H          -2.04817712082289   27.07330204428579  -17.59662843154951
H          -1.58664818790179   24.76258240600441  -18.31345284433455
H          -1.69128345670623   22.91421278274370  -16.68798817404902
