110
 SCF done       -200.761237162213          0.000652474463
C           4.32389929011513    3.56947117171542    0.54001315300817
C           4.05796182845848    2.74151184746243    1.59910168663546
C           5.00942153116739    1.87519594157581    2.17783835350070
N           5.73996394275991    1.15610450286701    2.69468855474755
C           2.79973948470113    2.59030404860607    2.22034940364250
N           1.80280894178967    2.38943341996909    2.75380970298284
C           5.57930496680932    3.62481491745176   -0.19697095089223
C           5.39350415738021    4.45622495541399   -1.33740433660628
C           6.39721768358999    4.68909675247445   -2.23330091588799
C           7.65833739264287    4.08795809988265   -2.02531522487937
C           7.85420965552248    3.25777643138710   -0.88379784110902
C           6.79590752226947    3.03681581496437    0.02737362689740
C           9.11681568353784    2.66296671765292   -0.68613245745031
C          10.13744130235701    2.87578347556001   -1.57248443594628
C           9.94363456734712    3.69400670967167   -2.69543782639442
C           8.73037208411023    4.28705316995136   -2.91721572350623
C           4.01516743330380    4.97131803705068   -1.35718147617974
O           3.53982410758590    5.70372298647537   -2.20100126207109
C           3.37946605071216    4.46081031849448   -0.11595007076128
C           2.20145254976291    4.86747734537969    0.44319539776185
C           1.14904666684123    5.63094107423800   -0.10956016107044
S          -0.04833844788974    6.26061619952456    1.00321535946036
C          -0.97259190676624    6.95301385668867   -0.28669751377083
C          -0.37164138143631    6.67127779881355   -1.52171292033797
C           0.81224924115996    5.93642034122852   -1.41542635492177
C          -0.91395598768990    7.07517609319718   -2.75527654313071
N          -1.33920369926494    7.37183581553107   -3.77767589841149
C          -2.14642069694276    7.70731725846865   -0.07899821398100
C          -2.70070614596903    7.90677395478927    1.14767171820964
C          -3.85310714419062    8.69834652925120    1.35235988009816
N          -4.47003397423763    8.85786406060908    2.57650354952590
C          -4.13976224112856    8.17407286542409    3.80418065875685
C          -4.63833975593246    6.73181682496098    3.80295674258275
C          -5.57830968272278    9.71275561119423    2.49463298293413
O          -6.25859265039131   10.02373745807281    3.45739633431031
C          -5.63463166457282   10.10630414608007    1.10918205932765
C          -4.55726106512407    9.47531907518147    0.43648301664035
C          -4.57966483120404    9.91541776750042   -0.94126902814873
O          -3.85588914572239    9.66766380282486   -1.88390863886737
N          -5.69982901857165   10.76229845704870   -1.01918954283071
C          -5.99667519720718   11.48314460584390   -2.23351826125897
C          -5.54524641467345   12.93881568046055   -2.14811645684874
C          -6.32834850960727   10.89460999552484    0.19092898925604
C          -7.47355073634592   11.71621706940575    0.40169477220193
C          -7.99033601519821   11.91069621620650    1.63176854836463
C          -9.08361801591905   12.79890602862803    1.93934306738645
C         -10.21981203531634   13.06022550944982    1.21924850257173
O         -11.02594088675294   13.90536953049394    1.88022869767713
C         -10.43065701229747   14.21084799884362    3.03601108926109
C          -9.22444136261533   13.57544783288793    3.14563993981429
C          -8.24645560828510   13.70266297766365    4.24432313895060
O          -8.56020724386598   13.90351668969226    5.39525164043594
C          -6.86005578590518   13.54470109178279    3.77044575007424
C          -6.35938209925816   14.00305830890233    2.56330714807611
C          -5.07568097884601   13.54913688373101    2.29451994558150
C          -4.58352701647491   12.71373911579224    3.28532750494907
S          -5.71316456856028   12.59415909927256    4.61319575043677
C          -3.41140008152501   11.92777556174324    3.37567178329184
C          -2.52199645483194   11.53314747913915    2.41679365816154
C          -1.38269016843253   10.66426269365264    2.68391863556959
C          -0.99744528368409   10.13729899271094    3.89005137557739
C           0.04769860600190    9.19904898489099    4.03183910858058
N           0.85218259498679    8.40025198218119    4.21371437910642
C          -1.57870070024590   10.38803207977224    5.15139098537373
N          -1.96990902327858   10.52584263432863    6.22273528221216
C          -0.71784165906898   10.39158256980211    1.41767363463455
C          -1.46384279582647   11.00581212090983    0.37287255809538
C          -2.57912230469195   11.76751318764018    0.94976754531303
O          -3.36753878534265   12.44982454941195    0.32458988819306
C          -1.10944941006392   10.87686992097267   -0.93959935324824
C           0.04920902794121   10.13920020760188   -1.26937012152532
C           0.83842375769084    9.57658952948251   -0.22436016343633
C           0.43279596743201    9.70897444178132    1.12289323454023
C           2.01143892078998    8.87165814157231   -0.56226967562182
C           2.37888454578270    8.70921653593333   -1.87089212257675
C           1.59137337456968    9.24926781354240   -2.89821194478754
C           0.45421152236872    9.95344519650947   -2.60477936109489
H           6.22990024703785    5.32146592996026   -3.09273922382244
H           6.97819580667744    2.40957702349220    0.88534871165896
H           9.26088142796948    2.03264376136320    0.17902092411196
H          11.10029489208106    2.41409692306093   -1.41325891990468
H          10.76033738776893    3.85206615263579   -3.38375288893872
H           8.57509846120454    4.91785941732295   -3.78028516588395
H           2.03234483904777    4.58944167786693    1.47739546877618
H           1.39991190557250    5.63622054078565   -2.26275829233544
H          -2.60142835051516    8.14507331550879   -0.95870967273515
H          -2.24189977536405    7.44246972656294    2.01143214185582
H          -4.62969469117019    8.73414931694910    4.60569695867615
H          -3.05854807578419    8.20437724966447    3.96617837245596
H          -5.71930226594154    6.71219985821109    3.68844423212110
H          -4.37841282226713    6.25486558436690    4.74351196273617
H          -4.19164094504069    6.16647863049724    2.98775033811026
H          -7.06644373412520   11.41230454635005   -2.45184056099028
H          -5.44171877922280   10.97111373870289   -3.02476937769108
H          -6.13678032733053   13.49174362078415   -1.42234694137655
H          -5.64472874849543   13.41442227869379   -3.11989094211414
H          -4.50549938482262   12.97975298991832   -1.83527898273097
H          -7.89209634495287   12.23212386058271   -0.44996515319463
H          -7.55462784024384   11.39006349232966    2.47415029453957
H         -10.56794706452778   12.67797263825949    0.28015701023619
H         -10.92210724168307   14.89981575110745    3.69405959276077
H          -6.91154988305156   14.65878840492043    1.91353185205296
H          -4.52538808019183   13.78933796005119    1.40518741080166
H          -3.24561058858814   11.53656356466812    4.37249348388900
H          -1.70463663746856   11.32527737818616   -1.71978744655548
H           1.04795698467918    9.26312022540405    1.88803377210948
H           2.61027531870523    8.45214521134883    0.23403458693019
H           3.26366048687668    8.14498155276487   -2.12128947071319
H           1.88764942040288    9.10058052116969   -3.92499884941641
H          -0.15815440484714   10.36545224393245   -3.39205916209172
