119
 SCF done       -225.412254144160          0.000638199865
C           7.12569915779052    6.28582129479063   -4.66122437715326
C           8.08764778938416    5.32160652029738   -4.54594731392279
C           8.73997548185217    4.71917485039797   -5.64264470397648
N           9.30040071898378    4.20339684516358   -6.50049412080909
C           8.49906704156715    4.78582110944516   -3.30660475348832
N           8.82174753229684    4.29755066227838   -2.31975571191195
C           6.54488441599423    6.80220416780804   -5.89262297010748
C           5.46091382833659    7.67302803731347   -5.56455286626663
C           4.70449738391833    8.28843329570113   -6.52263822271365
C           5.01514515312499    8.06229578580767   -7.88139057347670
C           6.10514251431111    7.20818674096983   -8.22173869805375
C           6.86295836022766    6.57943171728749   -7.20652463572016
C           6.40618996198093    7.00438883896094   -9.58363490984438
C           5.66702288563914    7.61228767387151  -10.56233649827031
C           4.59264441026897    8.44986482610177  -10.22609470912581
C           4.27320617410810    8.66938974224029   -8.91356287017977
C           5.35017771914688    7.78556131661132   -4.11288496032791
O           4.59228525648519    8.47781665883027   -3.46273188909188
C           6.43255441227982    6.92797798227971   -3.55694199700034
C           6.72882350404477    6.96773561617846   -2.23834460624160
C           5.87294529460099    7.66669478052169   -1.32076899356800
C           6.19420805537213    8.77280644093370   -0.57116596946214
N           7.46834162467168    9.37038518783153   -0.53794860846238
O           7.63987652543610   10.30437884535103    0.21989204341490
O           8.32203422555385    8.90508150905055   -1.27725968129524
C           5.01045719471741    9.28163088073848    0.08041521206148
C           3.95829842941749    8.52130819447626   -0.30283700163077
C           4.42933232877029    7.45761561082373   -1.15728017574906
C           3.74001052060939    6.33080366990283   -1.54261213279887
C           4.30305593769331    5.02954603273727   -1.75547732181110
C           3.29454988697315    4.11748253290816   -1.76862455773169
C           2.04122890735288    4.80893081391985   -1.64784938272182
N           0.80020960185989    4.15244313111278   -1.68904762387222
O          -0.21707621387769    4.82169024001219   -1.57776875515893
O           0.80887042811813    2.94191433878904   -1.82265162174339
C           2.27810670455107    6.17766749298133   -1.55923142100104
C           1.32495966118074    7.21971112130827   -1.65583559194399
C           1.57488755075120    8.41575183966602   -2.25757453988387
C           0.62511629438466    9.44674891453348   -2.48313699707479
N          -0.42395564688963    9.81483054642839   -1.67807410543815
C          -0.63741210640598    9.46945347196551   -0.28954308842084
C           0.23088627575901   10.33226461436977    0.62326888578394
C          -1.18514221860366   10.85919146741561   -2.25241699020537
O          -2.14153143126332   11.37132815732586   -1.71671140344250
C          -0.54808016578050   11.09798335598849   -3.52985966391969
C           0.56714180420530   10.24273800192790   -3.63299645435216
C           1.14283441614582   10.43866820592763   -4.94498193099957
O           2.07570342766917    9.92011883822927   -5.52028647296352
N           0.33476761889438   11.43427706564377   -5.54368509994920
C           0.67806857586413   11.93216906887966   -6.85366977243156
C           1.34029681248782   13.30595526776351   -6.78682511078428
C          -0.68337885225281   11.83233028365903   -4.70949168078493
C          -1.73839932778251   12.75738411948178   -4.90718142291038
C          -2.06671385948366   13.48165412503613   -6.00653495934884
C          -3.18881478734492   14.35227956913687   -6.05447948027050
O          -3.45519097796755   14.98423383958524   -7.22473867176420
C          -4.55039178312393   15.75456918674000   -7.08050496943245
C          -5.00876976151967   15.60734228947300   -5.76069658574698
C          -4.13355663821401   14.71801948817221   -5.11377977953501
N          -6.16713848414431   16.13550812087747   -5.12495558301119
O          -7.06037429478820   16.56724679697569   -5.82162328916323
O          -6.18993856806106   16.08175545218317   -3.91490812713009
C          -4.94202564454904   16.50166234969503   -8.22291388454105
C          -5.84124051526903   17.51586594226245   -8.27984997505457
C          -6.14031227178799   18.15449135187508   -9.51132769972334
C          -6.90196269076270   19.27682367587364   -9.62792237194206
C          -7.35417014529555   19.91026225396433  -10.85603506064280
C          -6.92355385241366   19.63331518013977  -12.12705172294196
C          -7.39518757495719   20.29260931031554  -13.28258105872149
N          -7.73629607058098   20.78719341856673  -14.26030941103514
C          -5.93498862604169   18.68526671572578  -12.46465570229616
N          -5.13255532708862   17.94155219830989  -12.81349436298560
C          -8.33248002208759   20.92762735383581  -10.49206922732490
C          -8.40512777786971   21.00728954279500   -9.07094720607954
C          -7.47612712012718   20.03409222303367   -8.47544814050073
O          -7.20547310034561   19.90122847081726   -7.30365237494043
C          -9.23730882872256   21.88543145888225   -8.43835116730197
C         -10.05928629661414   22.73449888822525   -9.21207078001071
C         -10.00076282186616   22.65461448496067  -10.63413122384824
C          -9.12426766365009   21.74029767195724  -11.26122858875732
C         -10.83039970419370   23.50259663226768  -11.39620470067410
C         -11.67593893352367   24.38797355075886  -10.78507781699417
C         -11.73102674548801   24.46703878163037   -9.38528195552560
C         -10.93988307382671   23.65796988747756   -8.61541746997543
H           3.88170067781177    8.92922504407610   -6.24343012072774
H           7.68264630615760    5.93948551472075   -7.49362246478359
H           7.23227388725739    6.35755791257758   -9.83970891381701
H           5.90634042238555    7.44994608739488  -11.60244940165695
H           4.02109214064613    8.91922721433287  -11.01275834292510
H           3.44826069078304    9.31042912906153   -8.64101202326544
H           7.65056549431094    6.55276462682844   -1.84991745141526
H           5.01500077164832   10.12861369750905    0.73954500628155
H           2.94872397795611    8.59776943649511    0.04941492258449
H           5.35499875455685    4.81652396548983   -1.77297114291495
H           3.37571253833062    3.05031374681899   -1.85309350366567
H           0.31336337301088    6.95047873687031   -1.38053666362883
H           2.53013479952770    8.57597788930216   -2.74401019230861
H          -0.43682919369746    8.41237999915331   -0.12565153362740
H          -1.69301650866920    9.66707200048383   -0.08514325356612
H           1.28438758368471   10.21654024030908    0.37568033201567
H           0.07870664306744   10.04340350404641    1.65914729500575
H          -0.03684697275458   11.38025763301767    0.51243294112580
H          -0.20957331126412   11.94179161881422   -7.49067966690183
H           1.38720808958289   11.20773062427447   -7.26585968996619
H           0.69307714980474   14.03287537767912   -6.30185083696648
H           1.56995755789478   13.65391226650808   -7.79021125882559
H           2.26706605564369   13.24138837304578   -6.22199372396404
H          -2.36430042136708   12.85196420117078   -4.02931617496625
H          -1.50421435820028   13.43519013194223   -6.92516126871257
H          -4.21470056414766   14.39592930409263   -4.09622934471648
H          -4.39902022275277   16.22587820240528   -9.11995270338274
H          -6.36051484676351   17.85898738530955   -7.39753746221053
H          -5.75554889087708   17.68247891513940  -10.40679429125942
H          -9.27048347839879   21.92715024524257   -7.35986861278455
H          -9.10619729877178   21.70235012595113  -12.33884892213812
H         -10.78388524940675   23.43911619318493  -12.47342808133320
H         -12.30756657933723   25.03282505405096  -11.37732912624327
H         -12.40380987365046   25.17173703433410   -8.92015184325481
H         -10.97813102807306   23.71362063408885   -7.53749031730475
