115
 SCF done       -213.779459543054          0.000816653386
C          -0.74017542119854    1.83783604400662    0.26542597254075
C          -1.89593681309025    2.00439349912407   -0.45304478767964
C          -3.12810174596993    1.41855807406260   -0.10160738157629
N          -4.15332101283909    0.97859270633436    0.16717935226791
C          -1.92045349797459    2.70177006808266   -1.67698241509083
N          -1.91215315723513    3.21256395392805   -2.70541483870791
C          -0.52821807424950    0.87700698517711    1.33862828485415
C           0.87266806628890    0.63146040839634    1.45385500531642
C           1.36827540726314   -0.27473713267599    2.34656039995693
C           0.47330265049092   -0.97910217696126    3.18333880227478
C          -0.92575518146665   -0.72469506995514    3.08423265724414
C          -1.41264171825461    0.21423220442233    2.14641788737444
C          -1.80606046133605   -1.43186044989208    3.92820443549313
C          -1.33041305372657   -2.35021106097585    4.82410992903443
C           0.04650114534136   -2.60176922536604    4.91942520530020
C           0.92894837139124   -1.93080876634864    4.11683853380306
C           1.60415288821576    1.48310077552892    0.49773519907122
O           2.78922579050374    1.51005666203499    0.27075758532252
C           0.55954478960275    2.36966666174981   -0.09946048548232
C           0.89702611206420    3.50724545852926   -0.75288225100858
C           0.03311825565710    4.62057683413208   -0.99056792602379
S          -1.08846333483036    5.11787026812138    0.24374385220008
C          -1.68293363407929    6.41619931326815   -0.74005225057035
C          -1.07798029987347    6.40620680762861   -1.99019120510163
C          -0.07526937160979    5.42940407670788   -2.10869423816596
C           0.73725909943272    5.25534934734756   -3.35310644117461
N           2.18846609674266    5.17528652142914   -3.03095989727381
O           2.84303418206795    4.37187727066922   -3.64398019713235
O           2.61009798744056    5.95267297372894   -2.21021202194118
C           0.56557971773287    6.46556087238124   -4.27900739979929
C          -0.91645210078707    6.76260549739634   -4.45161057647054
C          -1.51505950151102    7.26457810952922   -3.13109607512013
N          -3.00816206552255    7.23709574727429   -3.33288513711202
O          -3.67018103061940    6.47646895227975   -2.67818181932551
O          -3.41880480932395    7.97185459945339   -4.19156860739880
C          -2.63631454983269    7.35614083920574   -0.28665420404603
C          -3.38206151725280    7.26078430724820    0.84166269320431
C          -4.35458877439683    8.24839843942134    1.13958471956519
N          -5.17080816503856    8.23599362092859    2.24618369405413
C          -5.11705423732704    7.29695584702737    3.33954848551173
C          -3.94224035584437    7.57898951097452    4.27290662321434
C          -6.08567721052091    9.30197907745487    2.23868032967223
O          -6.89806124805905    9.49738057953006    3.12184876817002
C          -5.80032071097629   10.01082257696084    1.01142505645303
C          -4.71904904763099    9.34967970081018    0.36902370262947
C          -4.44904388631656   10.04554700614071   -0.86553114471584
O          -3.60457582290000    9.87404566691686   -1.72966861523367
N          -5.40764230440345   11.06732690925779   -0.91007839160376
C          -5.44464875937677   12.01077718040727   -2.00104070324414
C          -4.82994482492606   13.35336261331070   -1.61325820054367
C          -6.21656792179855   11.05877635379747    0.20200405141384
C          -7.29983358021375   11.96934536359383    0.40234709053194
C          -8.02537095122965   11.97805235608995    1.53075994011292
C          -9.16372301004223   12.89885385123710    1.76771408373886
C          -9.00012033175387   13.79484500897798    3.00429762949284
O          -8.36402001598084   14.76763209114262    3.23720941342453
C         -10.36670475683870   12.27174609063461    2.49156043709116
O         -11.24632592048179   11.55481565369938    2.13868999579203
C         -10.05325458619928   12.99536739201468    3.79273737799038
C         -11.10008955879508   13.76719998828533    4.48657250503936
C         -11.01088567651513   14.14336864208638    5.77694828036439
C         -11.93136281928957   14.98817710258872    6.53219130266164
C         -12.93359672303028   15.75826853652238    6.01241356523550
C         -13.78271834656756   16.57936343502126    6.78625991753595
N         -14.50255460027745   17.26333477123162    7.36122473176358
C         -13.23961205943306   15.86455610149896    4.63808214187225
N         -13.52739126067112   16.01157579645213    3.53692733836221
C         -11.53708859025953   14.92247678285963    7.93195479282623
C         -10.36019005144639   14.12553992637106    8.04454235613280
C          -9.96990911133014   13.63367144641794    6.71718020792959
O          -9.02866562535061   12.92044494544939    6.44171848707883
C          -9.75188546301732   13.90309588020368    9.24738631774938
C         -10.30114967392629   14.47821145457726   10.41427713900574
C         -11.48272474667040   15.26917037929876   10.31194027995614
C         -12.09200578740500   15.48024720444628    9.05475852381828
C         -12.02420972325553   15.83583808807808   11.48413087125062
C         -11.42713002407470   15.63482642235240   12.69869315517268
C         -10.26326734213273   14.85730137062314   12.79806655713526
C          -9.71242646201397   14.29104261089905   11.68055806931781
H           2.43088544206506   -0.45513577183457    2.41222707231199
H          -2.47521389324875    0.39453524695574    2.09320773779650
H          -2.86553812508954   -1.23758834821657    3.84831063324522
H          -2.01304035429104   -2.88905741901007    5.46388628138853
H           0.40442455374552   -3.32992216121927    5.63169365700525
H           1.99001349578168   -2.12065880395195    4.18567198010489
H           1.94077593783483    3.59877820545371   -1.03445059632876
H           0.46764617841446    4.32704475079053   -3.86930668967205
H           1.02272739633587    6.25393334990342   -5.24641193699316
H           1.06779501128084    7.32916451169747   -3.83517946343852
H          -1.43025701527102    5.84504988678374   -4.75009563853328
H          -1.07059187009318    7.51214402895681   -5.22769513754814
H          -1.26554267126882    8.31942647863236   -2.96604720444400
H          -2.77213525554513    8.22574889988528   -0.91474577074094
H          -3.27538396239826    6.40898179207906    1.49845904290840
H          -5.06407334660541    6.27854041697849    2.94406901934884
H          -6.05749264604840    7.41510474670249    3.88493914636577
H          -2.99580491529319    7.50721252253565    3.74125854778201
H          -3.94050057169150    6.86212035196169    5.08929867987836
H          -4.03089856212600    8.57952099769809    4.68894818773903
H          -6.47630562971948   12.13756023375321   -2.34089971486191
H          -4.86380985905194   11.55784974252657   -2.80950376908124
H          -5.36574101401485   13.80375551085332   -0.78054552848142
H          -4.86500286381964   14.03185295695482   -2.46101492284498
H          -3.79179969500925   13.21627386626195   -1.32085660997334
H          -7.52879845826796   12.65792564357731   -0.39914549168758
H          -7.78975307142120   11.29121126225027    2.33247663518936
H          -9.41884389697138   13.45345234903148    0.86073488952591
H          -9.51033416962211   12.35891855726010    4.50943897335588
H         -11.94322002322040   14.06726019610310    3.87911889161883
H          -8.85944872737970   13.29782730188655    9.30530178154812
H         -12.98841212793161   16.07823340742218    9.01095251292589
H         -12.91926025941233   16.43475553467027   11.40238126419766
H         -11.84811389293892   16.07452790127054   13.59030960540709
H          -9.80570653185906   14.70941012132326   13.76471967528444
H          -8.81682273788426   13.69139599852088   11.75089773464699
