100
 SCF done       -183.086151577412          0.000315824301
C           0.54947510869245    1.09988365326590   -1.27895425564531
C          -0.73533795720432    0.95466232811817   -0.83800811633227
C          -1.17880947446816   -0.14174190805176   -0.06846690285888
N          -1.58555442541355   -1.01403245470411    0.55612591220407
C          -1.79216236154836    1.81991590456705   -1.19238804004508
N          -2.69712782591712    2.45160240419396   -1.50783123147012
C           1.60465000933185    0.10107724085655   -1.17154843222963
C           2.60339963076881    0.38246454365466   -2.15134768690603
C           3.69673630826709   -0.42095455295372   -2.31082563188058
C           3.84728767396790   -1.55340066782901   -1.47995897671594
C           2.86149503586123   -1.82944176442064   -0.48767910953844
C           1.73778481114555   -0.98404982169107   -0.34699888470332
C           3.02774288439345   -2.95945121878737    0.33893030317651
C           4.11246310732861   -3.78028946094982    0.19242672100603
C           5.08167349326272   -3.50868153046739   -0.78526166458112
C           4.95191978519919   -2.41959892746448   -1.60351649524230
C           2.24861415721811    1.61347729588369   -2.87596366913713
O           2.81564607450048    2.13057535514476   -3.80860416191628
C           1.04342526391232    2.14319118131681   -2.16364762281547
C           0.68035762715227    3.43621928770447   -2.30698663118551
C          -0.19428954108963    4.15229027531900   -1.43788923207339
S          -1.17373948020005    5.50298523110775   -1.97583137025581
C          -1.75645350557606    5.56768370769773   -0.31527826193125
N          -1.18444854341642    4.67605912825402    0.44517751138157
N          -0.34263364363585    3.90192080369032   -0.16679756007758
C          -2.78270275735279    6.46308368353786    0.09058850215419
C          -3.19290004024177    6.52278361112913    1.38078858131510
C          -4.24610891822721    7.27368971465463    1.96521709504039
N          -5.24777736792722    8.01137557797749    1.36921421114289
C          -5.54237915654012    8.16986440487598   -0.03544348232158
C          -6.10185885134841    6.89041484980548   -0.65174987239825
C          -6.13459893875251    8.54763552725192    2.32235329845820
O          -7.10186140371792    9.22573894477192    2.03107249019320
C          -5.60946498266085    8.11786535979321    3.59623123405256
C          -4.45212914977856    7.34666916849523    3.34062359505639
C          -3.91089733576436    6.90743541105387    4.61031396986225
O          -2.94082484439496    6.24571071580528    4.90196227268905
N          -4.81014905705236    7.43625451855563    5.56288604388461
C          -4.59120219728616    7.25542780594411    6.97713677568500
C          -4.03235146401085    8.51648350557319    7.63155846821626
C          -5.82530343927626    8.14969102287935    4.97427385492300
C          -6.90183108966434    8.72975420035450    5.68965075363522
C          -7.90436446061035    9.40970180502642    5.07849475613084
C          -9.03029481989000    9.94101890041828    5.75696358975590
S          -9.26366265489749    9.78704593767088    7.47259959585707
C         -10.78095957336285   10.61403750527985    7.39679604471976
C         -11.56709823471149   10.71000535880079    8.60129561474442
O         -12.65902558431982   11.22256801900383    8.70888101378170
C         -11.08434896334676   10.99713723226808    6.08942597437992
C         -10.10053478765595   10.59591448713440    5.17666360904317
C         -12.30778821880389   11.66422097638726    5.68412021394527
C         -12.82615614036328   12.74097683122042    6.29815313485161
C         -14.13921599317963   13.34150679155012    6.09012818226946
C         -14.95583239984975   13.15913364477592    5.00985120472792
C         -16.22044006672389   13.76908674579213    4.86225520692556
N         -17.25309241940005   14.23686883559734    4.68465012603479
C         -14.62761130079435   12.37396736559035    3.88356322306187
N         -14.41304888769565   11.76000944752618    2.93778224179423
C         -14.40996142745741   14.18339917680895    7.24584189016127
C         -13.23821370591155   14.25505244816613    8.05512231895938
C         -12.16759607323246   13.46153669647235    7.43641988968095
O         -10.99155298698391   13.45071608238753    7.71660092216612
C         -13.20837176753067   14.97459457954985    9.21507246623949
C         -14.37155862336172   15.65808014650200    9.63244540231716
C         -15.54827760998663   15.58840463905332    8.83066350739387
C         -15.54885463971565   14.84236702919389    7.63142966927882
C         -16.70402979150628   16.27375929508960    9.25937559275270
C         -16.70037755217939   16.99228415819112   10.42336539233178
C         -15.54180069694153   17.05959188175736   11.21245212783812
C         -14.40285279745268   16.40751211075918   10.82531860991848
H           4.43838049357621   -0.19517969727040   -3.06261579974715
H           1.01130166966041   -1.20749061002948    0.41856559235540
H           2.27731765589435   -3.16573918383409    1.08773459495058
H           4.22988626759276   -4.64434815101584    0.82902988502429
H           5.93159288317337   -4.16679969370413   -0.88634219150555
H           5.69490153632618   -2.20581760222022   -2.35783326281004
H           1.13906400989018    3.99413254904077   -3.11504925256091
H          -3.21092298062234    7.06478392652463   -0.69406848173282
H          -2.65245090803359    5.91640521264301    2.09746080903931
H          -4.65233610066935    8.51700243963949   -0.56561798889706
H          -6.29994652224587    8.95830348508815   -0.08627984633209
H          -5.40045148451929    6.06473638234089   -0.55928339689795
H          -6.31522006410737    7.05335619105264   -1.70450869085191
H          -7.02607623823784    6.61437476052304   -0.15007402800039
H          -3.86495636592455    6.44254712668341    7.06570666120536
H          -5.52440040650494    6.94831086037697    7.45810461144296
H          -3.08683811460838    8.78705485598900    7.16816817533654
H          -3.86139543767771    8.33644334029067    8.68916698547810
H          -4.72147273451799    9.35133097703938    7.52526472490251
H          -6.93282258662614    8.59587235163199    6.76260735216823
H          -7.88145114358676    9.55607815359811    4.00564068925191
H         -11.07295963191320   10.23883030963890    9.47267729564723
H         -10.15490600836144   10.79017567944015    4.12004101185079
H         -12.81301135821469   11.21538777592610    4.83814521960486
H         -12.30969349101360   15.01320974151817    9.81241296356780
H         -16.45609636503816   14.80138178908664    7.04920596799182
H         -17.59296532693873   16.21916828510010    8.64824078085271
H         -17.59043923717041   17.51279255228527   10.74372167368441
H         -15.55724451154741   17.63060862456647   12.12875927112960
H         -13.50834853908393   16.45583538382485   11.42889285086221
