113
 SCF done       -202.692984823564          0.000736463509
C          -3.18630952813644    7.49194430068296    4.47346748443315
C          -2.91616567483375    8.83448224707891    4.44758087601205
C          -3.91198482203364    9.82842603810071    4.34302256596064
N          -4.68215083030981   10.67346252542202    4.24558150870712
C          -1.63120245513500    9.39127074478277    4.61508652068006
N          -0.61549724286159    9.89653648320193    4.79354676843800
C          -4.51386723971057    6.89994882319000    4.58319107389828
C          -4.38019222022028    5.57708802575839    5.10023171652514
C          -5.46893146864056    4.79427772480341    5.35743348270932
C          -6.76088873913594    5.30379507958179    5.09802428820175
C          -6.90018193542220    6.61810109052215    4.56383735387158
C          -5.75574513761023    7.40800910605423    4.31024639500582
C          -8.19504236934280    7.11196402171881    4.30505376638538
C          -9.30022098524938    6.34829332535169    4.56503096467308
C          -9.16218282785766    5.05542708578411    5.09231979307042
C          -7.91976322429012    4.54428155662240    5.35305678487293
C          -2.95286450884004    5.25934176371374    5.27548839619263
O          -2.45679783057305    4.25940762022302    5.73450894997216
C          -2.22325239054276    6.42771953622553    4.68992059921806
C          -0.90921603525503    6.31837680135171    4.38281608323108
C          -0.13353691249532    7.14972791281586    3.52978413701927
S          -0.77775443862692    7.95365749930052    2.10711995634696
C           0.74973081463818    8.71941474567284    1.74200590280601
C           1.69165991900473    8.33800867802485    2.68236773243868
C           1.20774626436482    7.44033655382336    3.65528264452028
C           2.26162861032238    7.10941828043217    4.62341050338960
O           2.19478176532616    6.35915318459560    5.56178487194184
C           3.48389432195631    7.91018852492198    4.18829810284609
C           3.08071863525991    8.69841589876512    2.94924535280831
O           3.77456169527373    9.47682035328295    2.33793051055011
C           0.96172558504977    9.64490235808503    0.69860999932535
C           0.05382069752140   10.01784282190183   -0.23338910813854
C           0.26878945142541   11.05554541340330   -1.18085318724294
S          -0.54990440998097   10.97482788073313   -2.70609076976209
C           0.21369968766002   12.44102654178671   -3.25630944790114
C           1.03789791458928   12.97292205292963   -2.26389571445014
C           1.06267191093078   12.19727937801516   -1.09638305069004
C           1.78615221313768   12.62586399376267    0.15689464040630
O           0.92972468617760   12.36928908207542    1.25274519222079
C           1.55629845155250   12.36605610074838    2.51449436644294
C           2.18580957170358   14.10426292933441    0.05839850001099
C           2.86126490302377   14.36349367607647   -1.27976853725734
C           1.84603297445985   14.22411783950167   -2.41044486584655
C          -0.05821082929351   12.88149653369658   -4.57725362649378
C          -0.69256238657515   12.13167138439182   -5.54971279640098
C          -0.75725457721070   12.87076734851432   -6.75612553710730
C          -0.14402969396610   14.18201276228335   -6.45964497032544
C           0.26667662259400   14.17498798424922   -5.16590164558006
C          -0.00820997601001   15.27163340877519   -7.32625096737733
N           0.12636223997405   16.18942930331585   -8.00399161275832
C          -1.24802683439525   12.46552145674158   -7.97892132896576
C          -1.22877764335811   13.18863123452423   -9.20273813334400
C          -1.78107484222126   12.41199433085174  -10.20370475025559
C          -2.18694299239740   11.14592946121447   -9.60806963835594
C          -1.87391850222628   11.16645719947630   -8.28577377505285
C          -2.11955190626726   10.12565117955049   -7.38300969004524
N          -2.33062448831704    9.25438390818529   -6.66456149073659
C          -1.90136209407916   12.78834555234775  -11.56160131296269
C          -2.41605812039530   12.00442011434360  -12.55127119300762
C          -2.46899174956669   12.45044241658115  -13.88897577612205
C          -2.95123771213396   11.71979162049331  -14.94030490878119
C          -3.00362033714147   12.12910585336619  -16.33113030981198
C          -2.59124171005196   13.32778821776641  -16.85593783379409
C          -2.66690523992340   13.66032591495626  -18.22497578581737
N          -2.70011519623845   13.99902628885714  -19.32158749266342
C          -2.03575984531144   14.40180250921847  -16.12995075930094
N          -1.57363144210914   15.32107789165440  -15.61925539468078
C          -3.57843092653435   11.02853442997393  -17.09776483186035
C          -3.88425037653365    9.96134122887168  -16.20579997770193
C          -3.50897541283136   10.34493638768842  -14.83476536312862
O          -3.63401519482597    9.66879447100216  -13.83434346698607
C          -4.43786599589805    8.79186565997034  -16.64102167714944
C          -4.71489298636229    8.63043717594982  -18.01690938957935
C          -4.40941652958813    9.69181579096870  -18.91692226118517
C          -3.83840150576919   10.89234366582966  -18.43596628797580
C          -4.68643790073258    9.52018077351570  -20.28849429367049
C          -5.23914697998533    8.35688473944041  -20.75061683837146
C          -5.54068955238843    7.31286154671819  -19.86334827827907
C          -5.28423905279250    7.44665654193990  -18.52564614229632
H          -5.34616131613064    3.79882061500109    5.75742275539774
H          -5.88808041921701    8.39535017500639    3.89595818747748
H          -8.29647260634215    8.10907152684822    3.90258597678617
H         -10.28778781554924    6.73669551295226    4.36648512344117
H         -10.04510714540118    4.46664914862629    5.29078786174424
H          -7.80723842972156    3.54976018235750    5.75911078953184
H          -0.37968193279647    5.47813706423275    4.82388806026892
H           4.32930289439393    7.25154420653332    3.97734198291509
H           3.80428908941279    8.58281003988756    4.98697473500452
H           1.95586451449174   10.06577696034763    0.69298767824780
H          -0.88998210812262    9.48954691772468   -0.29980357061854
H           2.71222544232165   12.02935735607723    0.25964214249430
H           2.45529900372656   11.73954000972013    2.51197619195135
H           0.82922984339892   11.95063991863687    3.21074408022005
H           1.82723848981858   13.37653828539700    2.83723314240136
H           2.85984943485385   14.35086320288783    0.87924775547611
H           1.28705843765717   14.71689961569928    0.15498174579857
H           3.29095665370762   15.36584137789308   -1.29953246229456
H           3.67301847662265   13.64615552581737   -1.42014456450636
H           2.36321923003495   14.22095973710207   -3.37218881324373
H           1.16954974112202   15.08461987921266   -2.38990603782688
H          -1.05206499116648   11.12907946993281   -5.42408524867942
H           0.71916297553561   15.00341852106275   -4.65845266150944
H          -0.83332076408040   14.17786636486946   -9.32650650724958
H          -2.65679141438193   10.33554613073672  -10.13285288532495
H          -1.53823805700006   13.77829109789212  -11.81355144811487
H          -2.78832073356045   11.01507775905709  -12.33398936531707
H          -2.08608470888993   13.44538602963631  -14.07792690810868
H          -4.66083277339223    7.99853349485855  -15.94295545705315
H          -3.62042923410025   11.67548396931129  -19.14430292544622
H          -4.45259987892804   10.32707245365215  -20.96746652391083
H          -5.44716186661560    8.23475191033848  -21.80303562365322
H          -5.97699743712005    6.40197490762349  -20.24519249144107
H          -5.51410576977773    6.64600874637409  -17.83787828001076
