120
 SCF done       -228.190734389633          0.000734277392
C           3.59083382739047    2.59691563666178   -3.29782898252947
C           4.66492866250238    3.34016534786878   -2.89180616430593
C           6.00153930976343    2.89472274252785   -2.97193573858278
N           7.10428684934126    2.58251198262384   -3.02109997041909
C           4.55221993283613    4.59791628268206   -2.26603155466383
N           4.50670916576907    5.60016876493882   -1.70688759179502
C           3.61647084388627    1.20522444094254   -3.71901941577354
C           2.29756101882343    0.66878351639687   -3.61575888529242
C           2.03080830814195   -0.63739702928948   -3.91287388198255
C           3.08485471001924   -1.47685450206023   -4.33723409618509
C           4.40065553298496   -0.94141758506802   -4.45947947986310
C           4.64929418608495    0.41355708964730   -4.14480369979630
C           5.44155399042348   -1.78967924449513   -4.88909560317515
C           5.19838088622861   -3.10439616509673   -5.18044919694331
C           3.90361583764731   -3.63106641576872   -5.05802929800012
C           2.86960502892375   -2.83478404109382   -4.64586088145070
C           1.37206420449000    1.72328888293820   -3.17622962967414
O           0.19691398286452    1.64133154842795   -2.90763611959933
C           2.19310018851494    2.97320801981946   -3.16964410987511
C           1.59131139966161    4.18116965430975   -3.17661103651602
C           2.16313696795610    5.46164889393370   -3.47355064038953
C           2.91583949582489    5.85467666461053   -4.56157640437812
N           3.38575594562392    5.07545999455399   -5.63596164532286
O           3.90301128768895    5.66331525424598   -6.56734667275780
O           3.26013103832031    3.86027732215792   -5.58125854239639
C           3.13013131180161    7.28482586433472   -4.50878102797706
C           2.50506706111951    7.77553916797165   -3.41732833774658
C           1.87539459742458    6.68704509109639   -2.70991084661155
C           1.29267654365089    6.71296674964870   -1.46444990420020
C           1.20849784608151    5.59525490704209   -0.57046188468979
C           0.91365322488753    6.04566086929466    0.67810575619836
C           0.71353423656617    7.46311036837404    0.62477503354751
N           0.33542412255730    8.20887683394840    1.75430368205163
O           0.24068963849019    7.61195936525261    2.81130119702397
O           0.12889673353512    9.40903444201512    1.63019801529159
C           0.88617571431278    7.90556077513137   -0.68934525268612
C           0.59059573121385    9.20220993618925   -1.14497395079169
C           0.25191693888450    9.54830642411316   -2.42524706317644
C          -0.09744987919422   10.82578059278856   -2.90471401739976
N          -0.10479904993715   12.04880041892259   -2.27576663847868
C           0.35270474439800   12.40267024501452   -0.94930011409996
C           1.87331330711815   12.34816981445094   -0.83514545794698
C          -0.56675846078162   13.07446438913457   -3.13148090348287
O          -0.66292419346152   14.23470376439004   -2.80365911499070
C          -0.86064935543604   12.39713387681115   -4.37867212239035
C          -0.55715064495600   11.03934287741141   -4.21623542978411
C          -0.84658140176639   10.36927584354338   -5.46692686407128
O          -0.73343997261580    9.21596604012119   -5.81558370115580
N          -1.32252801201272   11.40200757341907   -6.31628097423744
C          -1.75377603989463   11.08482454471832   -7.65680050525933
C          -3.27046234150444   10.93092938314326   -7.74212808475595
C          -1.34711991698819   12.61233277561398   -5.67472893501617
C          -1.76836893186691   13.89321559537289   -6.11258373435825
C          -2.30773273244179   14.29630753259149   -7.28912599629778
C          -2.70588919305765   15.65095543611983   -7.48358386877547
O          -2.53259185676474   16.56786456046167   -6.48246271337892
C          -3.04187012654983   17.71407214815023   -6.97116464901034
C          -3.51540152587838   17.44431529371680   -8.29450833319471
N          -3.27065212787041   16.12685826163635   -8.55493241376085
C          -4.11450368318476   18.42244592328466   -9.07328318417971
C          -4.21772646034112   19.66376636979083   -8.46424640830580
C          -3.73687224621092   19.90335752083620   -7.13731982068333
C          -3.13092284654187   18.94325774004607   -6.35068357351843
O          -4.00243328771935   21.18552162491767   -6.83991685508678
C          -4.61419575626627   21.69034229592468   -7.96548809625373
N          -4.75725769086021   20.82809129616325   -8.92131972221284
C          -5.06899572486902   23.03966689935791   -7.87357532653748
C          -5.44163861902988   23.85774110236981   -8.88485410914200
C          -5.99105343964023   25.19861150234643   -8.72050585098957
C          -6.51141371001007   25.72426906039138   -7.56885628141485
C          -7.06588396766376   27.01953978113627   -7.47220129965709
N          -7.52435570681534   28.06106891137694   -7.32494379269957
C          -6.60539101838232   25.05232405041556   -6.33048546630022
N          -6.73642815503869   24.57244681556402   -5.29607736657715
C          -5.97551430900917   25.84957534616392  -10.02160383694209
C          -5.51450722703913   24.91669264286362  -10.99395335771723
C          -5.19148989971987   23.63019876068989  -10.34736964274681
O          -4.75411618617084   22.64376416334572  -10.88270336578418
C          -5.40542342608245   25.24857379349252  -12.31410782806046
C          -5.75912826317492   26.55153429762271  -12.72996923680451
C          -6.21155156712008   27.49398291263251  -11.76073450913460
C          -6.31315271458209   27.12325316224213  -10.40150880114109
C          -6.55440110914134   28.79449613067693  -12.18504341855605
C          -6.45835349570259   29.14806799255570  -13.50314738553480
C          -6.01496739665577   28.21904144235654  -14.45688189800697
C          -5.67328285351911   26.94878575044335  -14.07893094648399
H           1.02735484283914   -1.02684799391188   -3.82495129935338
H           5.65014953935372    0.79926820926018   -4.25978011972401
H           6.43670720574242   -1.38005520220080   -4.98029804195868
H           6.00273242610235   -3.74660057667066   -5.50646339481491
H           3.72976845580552   -4.67069217039456   -5.29200607676617
H           1.87087411372944   -3.23506787405309   -4.54972718479409
H           0.52355594666633    4.17717930547541   -2.97055855373753
H           3.71353348192986    7.81623222675458   -5.23562679848897
H           2.54938083804877    8.78540001490033   -3.06276379777321
H           1.46459264136473    4.58728683406659   -0.82886580427657
H           0.83503857518384    5.46937693711205    1.58066868399670
H           0.53168338775906    9.93945969751925   -0.35922379641306
H           0.17175661721969    8.77579102223348   -3.17988280161031
H          -0.12927709348968   11.77324742778026   -0.19819249884171
H           0.01649530982730   13.43241503206199   -0.79443449606104
H           2.25601861574335   11.35495643084286   -1.05696813481769
H           2.16820317194218   12.61346678496008    0.17563505411184
H           2.32489355737462   13.05561640904155   -1.52666823841719
H          -1.27967485566921   10.13075329115007   -7.90637343332558
H          -1.38841857002894   11.84892473388653   -8.34621825604438
H          -3.59274959806632   10.10453057314974   -7.11350866828826
H          -3.56028300094849   10.71907426845398   -8.76726215859087
H          -3.77841495740067   11.83440758936750   -7.41294804528483
H          -1.63882789774308   14.64768177431656   -5.34466205165300
H          -2.49596914448427   13.65358341393407   -8.13227043061189
H          -4.47387408262279   18.23723093015660  -10.06943661402778
H          -2.77403437217851   19.13042783329123   -5.35305522521484
H          -5.09105309599166   23.40241392905637   -6.85337160631138
H          -5.05498878070700   24.52262381358962  -13.03256447564695
H          -6.65029807970029   27.86095747498390   -9.69079621645163
H          -6.89688879041092   29.50495050976613  -11.44712587983347
H          -6.72385974979954   30.14577842189057  -13.81879993829083
H          -5.94522682243622   28.51561342228668  -15.49266120670054
H          -5.33108766389394   26.23004939780366  -14.80889871659359
