92
 SCF done       -178.982247322482          0.000553995248
C          -2.59141737223778    1.53582631070557   -6.08530522497169
C          -3.36354567838431    2.65736971068613   -6.22606543933020
C          -3.30406414835694    3.52560422954727   -7.33419844180683
N          -3.27187468109476    4.29349576576142   -8.18747554277175
C          -4.35683948663148    3.04371138149310   -5.30130514608920
N          -5.20869163520566    3.36950672484800   -4.60451134717839
C          -1.78705804971889    0.93093139097291   -7.13998581159747
C          -1.56308493209872   -0.43801159344782   -6.80897449864963
C          -0.87202497158364   -1.27118896726860   -7.64082969233247
C          -0.35531209728627   -0.76176548527893   -8.85358976999639
C          -0.56309469454759    0.60958712289383   -9.18201528074700
C          -1.29024280456120    1.44770131076878   -8.30614924627950
C          -0.03510169766872    1.10592232572057  -10.39130628077051
C           0.66376312363615    0.28904958648126  -11.23766747670277
C           0.86757622154663   -1.06074470272613  -10.91387732826830
C           0.36805624772743   -1.57504300515328   -9.74820953537166
C          -2.15881702400363   -0.72905300638168   -5.49101117350015
O          -2.21747386169871   -1.78870711199507   -4.91627947802855
C          -2.61694231086130    0.59851499706614   -4.97690430414346
C          -2.79133137577161    0.77717414289963   -3.64082293684705
C          -2.81130000178814    2.01043492686445   -2.94271788114313
O          -2.45147820683833    3.15084975391016   -3.56813536166169
C          -2.55982451611848    4.16747603407296   -2.68835571714307
C          -2.97065420626061    3.69120172558494   -1.46095984232781
C          -3.13067858305366    2.29777772619498   -1.60986994988728
C          -3.56081944724550    1.31927874444366   -0.59604021572666
O          -3.61878322996842    0.13407226809999   -0.82941257313862
C          -3.91460031989284    1.90591866908705    0.74437517615855
C          -2.31687975179109    5.47083801591284   -3.19923093069526
S          -1.98036922140822    5.63552498020592   -4.88805924045081
C          -1.95054019257683    7.34894375590931   -4.75825653989390
C          -2.18013106587688    7.77127135923441   -3.45251440908344
C          -2.37765511792891    6.69697989051531   -2.54530051771042
O          -2.66222720882367    6.72519719377751   -1.23472297414148
C          -2.46669668199446    7.93004888896806   -0.49794126399936
C          -0.98995851101738    8.20255204342321   -0.23599837769262
O          -2.24642229489520    9.08984202749148   -3.12342963462814
N          -1.04966897155180    9.89680085720006   -3.37487493900211
O          -1.24230728299437   11.03355408041168   -3.19643210653846
O          -0.08324652178437    9.28195833545253   -3.64576243764351
C          -1.76503265599355    8.17521504828435   -5.89736632041648
S          -1.56821096604012    7.53369492676735   -7.51097911270614
C          -1.50821975258844    9.22325444459388   -8.02253666280212
N          -1.62359845231044   10.04962454264830   -7.02372459546238
N          -1.75925851658036    9.48384936017147   -5.86241908536652
C          -1.36601952774507    9.57899680202612   -9.39068655341939
C          -1.43854413908018   10.85366498705021   -9.84413426582558
C          -1.31863799546807   11.13691426564937  -11.22976531862439
C          -1.45799435056121   12.36673375222707  -11.79665417838508
C          -1.36885906909332   12.68358469348717  -13.21341205321842
C          -0.94050569157903   11.85176589474643  -14.21445514126196
C          -0.86214942105532   12.22487434109778  -15.57351382230293
N          -0.77168436241747   12.46146472677065  -16.69310032018453
C          -0.49543487864481   10.52331265391693  -14.04718223707119
N          -0.10911793896883    9.44290808441590  -13.99850853502484
C          -1.78074368950453   14.07132315668923  -13.38415500275543
C          -2.04061670339378   14.63305203916707  -12.10128361561726
C          -1.82048060628865   13.61361926697047  -11.06121838402813
O          -1.92530377469285   13.76241911901569   -9.86461447593105
C          -2.44544299746445   15.92794250952373  -11.94888633450448
C          -2.62000565437083   16.73494223758426  -13.09506373998336
C          -2.36955135867100   16.17867236701717  -14.38302637191035
C          -1.94589526800578   14.83643745080844  -14.50931053329120
C          -2.55470651909790   16.99024769259832  -15.52111685047000
C          -2.96706049510129   18.28864639286729  -15.39494885728701
C          -3.21216780922738   18.83562799741277  -14.12637761269584
C          -3.04184339837761   18.07571124268830  -13.00099490454285
H          -0.71948833740416   -2.30705802305805   -7.37684382775029
H          -1.42666943540885    2.48454224000402   -8.57191898424306
H          -0.19729893989516    2.14492009877925  -10.63771615206119
H           1.06337910697782    0.67856680319766  -12.16189522107796
H           1.42263281001298   -1.69083205913549  -11.59258127207812
H           0.52165839796452   -2.61353182662880   -9.49397273922393
H          -2.84910361686899   -0.11056371199907   -3.02158214158386
H          -3.13778006352281    4.29074705925508   -0.59181606196424
H          -4.71481029092343    2.63297608003766    0.62632355781652
H          -3.04953537072747    2.41200573097133    1.16721100853421
H          -4.23620549658071    1.11394921925791    1.41509944545227
H          -2.99056140415582    7.75031892490602    0.44375340478259
H          -2.94199654394288    8.77081073281981   -1.01045827277334
H          -0.56488956896012    7.41248385963838    0.37819712827682
H          -0.88034382841873    9.15064457249311    0.28233709525320
H          -0.42661062459507    8.24395372263572   -1.16572606341272
H          -1.21298005371966    8.76014735319112  -10.08181944995967
H          -1.60342096461740   11.66425418990574   -9.15003316499816
H          -1.12530494858859   10.28620751318978  -11.87181189598900
H          -2.63429260772284   16.32948837836946  -10.96440618860450
H          -1.76874834145587   14.44484736365737  -15.49829183908965
H          -2.36360669731988   16.56478616048314  -16.49531737676659
H          -3.10667426237097   18.90200644180887  -16.27244997251682
H          -3.53724807651110   19.86204235840150  -14.04559412643267
H          -3.22962228631010   18.49121441731431  -12.02186831279282
