96
 SCF done       -179.074378812506          0.000928425016
C           1.70787937897269    2.56424507801984   -4.00945548172350
C           2.77970200131309    1.88701956838084   -3.48910307348553
C           3.55247971558446    0.95469214750327   -4.21423082426193
N           4.22212508313825    0.18677849669212   -4.74298012074500
C           3.27612960033070    2.00845317984392   -2.17443585425931
N           3.74098997755469    2.04878845127161   -1.12475272649075
C           1.20822562479213    2.42826341218136   -5.37410416602117
C           0.08885343181746    3.29404797388754   -5.53791176470521
C          -0.59466287971622    3.38301513196278   -6.71623093167922
C          -0.18027634245868    2.59357733686939   -7.81175886467239
C           0.93954959714102    1.72570800370419   -7.65945328053112
C           1.62595341764860    1.65495493675865   -6.42496355463066
C           1.34600193756144    0.94382677854943   -8.75967908902120
C           0.67957765732988    1.01434865157825   -9.95299220763117
C          -0.42336210687628    1.86838288321606  -10.10110557648364
C          -0.84437404139542    2.64144505946277   -9.05301153928037
C          -0.15397747718620    4.01060566817899   -4.28020440839558
O          -1.02919915704229    4.83213048869923   -4.07027366168521
C           0.86623016423705    3.53681979254441   -3.33072793733699
C           0.98789996339273    3.94210398545813   -2.03086902093291
C           0.22432659975385    4.87098050607467   -1.29540149482708
S          -1.13412964723744    5.81583532861449   -1.85439817938811
C          -1.32032962594258    6.55997195875868   -0.30729236204055
C          -0.36416879494013    6.09178839776611    0.60689044331551
C           0.49436551427794    5.14883714545136    0.03920023972644
C          -0.24693626076273    6.50136463344160    1.94492568740681
N          -0.13846915221477    6.82355575667015    3.04172674947033
C          -2.36896855233328    7.50928239774501   -0.14369975749346
C          -2.66438424306105    8.12886781210617    1.01560596527805
N          -3.67250090481571    9.04944805297992    1.19752558729436
C          -3.98292461104836    9.59948121438400    2.42779981681844
C          -3.27819557143379    9.25714800859400    3.67963751062680
C          -5.02492269861300   10.46957272846592    2.25399933478991
C          -5.39549328943556   10.47988005800534    0.86515053057295
C          -4.53220418712746    9.56616026121486    0.16351545009352
O          -4.47479242731551    9.25181926820356   -1.00006272553098
C          -6.44922282751147   11.33032759582256    0.67955064684751
C          -7.13956418391488   11.60677009397930   -0.59696146905654
N          -6.76722913969899   11.87460750897470    1.91369000124979
C          -5.91384869874923   11.35946204364060    2.94053102938804
O          -6.03677790417366   11.68107557642960    4.10297452610700
C          -7.75989329241239   12.77025647650359    2.25434834595981
S          -8.03655948293677   13.10590887709396    3.93828971466726
C          -9.36095782120164   14.16940803234545    3.54637891877567
C          -9.52503631090728   14.26854362592660    2.16893628768146
C          -8.61283529189170   13.47412493760412    1.44425472841637
C         -10.42538202485034   15.11117643967590    1.49333912627643
N         -11.10300578213857   15.79369980702130    0.86786439516820
C         -10.09606029789795   14.77820346586470    4.59390697984334
C         -11.31104777999764   15.37078963633214    4.45450294964596
C         -11.98506732227733   15.94963269301721    5.55514368433283
C         -13.26546047710680   16.42294044177676    5.51656075182619
C         -13.98803190208778   17.08136147127876    6.58957946851611
C         -13.52466370311971   17.35349417474211    7.85156576686134
C         -14.28155235779226   18.00086606476770    8.85065152474656
N         -14.83843517462553   18.51903299860195    9.71080428344716
C         -12.24353211875226   17.03368393565747    8.34657367042640
N         -11.22528621283086   16.81059383514797    8.82946469570336
C         -15.31690027217269   17.41961566672973    6.08974433112787
C         -15.42629239689139   16.96999614175163    4.74340025383668
C         -14.16918045269609   16.31723994774542    4.33864217192874
O         -13.94653296130767   15.77664114078793    3.27679213645728
C         -16.56479269389120   17.14475651540924    4.01159822276939
C         -17.67153135187505   17.79243150987954    4.60415792125060
C         -17.57192121084391   18.24650491667269    5.95088864350752
C         -16.37866874966038   18.05067995227054    6.68344195460269
C         -18.68327230097434   18.88925624923355    6.53379741643714
C         -19.83752588341852   19.07434669410374    5.82279577628197
C         -19.93416157826325   18.62653214848893    4.49674354644580
C         -18.87394682271822   17.99969423264752    3.90029097514759
H          -1.44017832482909    4.04814558849679   -6.81066029730182
H           2.46813414365192    0.98649912254479   -6.34498003528455
H           2.19554052492832    0.28743599756263   -8.64122943808282
H           0.99916700002628    0.41177341555163  -10.78987916112271
H          -0.93770657146502    1.91098717638033  -11.04945502502935
H          -1.69289841603027    3.30116163733376   -9.16065668156235
H           1.78467765522626    3.49784009836367   -1.44652325701522
H           1.29499348423666    4.67563169781683    0.58158803181781
H          -2.94640471779996    7.71681323587532   -1.03194540354338
H          -2.09658607195968    7.91898093536613    1.90933984323120
H          -2.21668595251761    9.49713854819333    3.61140315449019
H          -3.36228238336707    8.19176985288999    3.89598875774237
H          -3.71799380995447    9.82161009950558    4.49741644427412
H          -6.71938674496431   10.95340493244085   -1.35797993299938
H          -6.98891235645798   12.64085180578178   -0.90710075808549
H          -8.20945640336536   11.41885366959480   -0.51365334061064
H          -8.61047384518593   13.45987942268436    0.37240936884136
H          -9.65313820276806   14.70449697729923    5.58040731692506
H         -11.80154022281947   15.39164867186088    3.49283047944979
H         -11.42746034527256   16.01527579156862    6.48098311981280
H         -16.61839316754547   16.79257099113493    2.99214029279976
H         -16.33785972475133   18.40625618632028    7.70062746968197
H         -18.60431869376243   19.23235670438746    7.55501219987618
H         -20.68332637995095   19.56715814308413    6.27848135320513
H         -20.85279839141824   18.78069499411295    3.95051172150699
H         -18.94171299404291   17.65255890279049    2.87959168795068
