108
 SCF done       -193.062852905627          0.000398208084
C          -1.34061737079056    5.65462970560399   -2.13774375495056
C          -0.68266291169762    5.09030520102301   -3.19623825542306
C          -0.78514355111563    5.56198274938902   -4.52293850504840
N          -0.83022459972343    5.90722575026328   -5.61615952272269
C           0.11362960581574    3.92938166144915   -3.12145002803325
N           0.73538089293784    2.96478180939077   -3.14192213559449
C          -2.32661591607527    6.72485591339695   -2.23648621696888
C          -3.11857480165620    6.73282323832206   -1.05042467277069
C          -4.15090691947437    7.61082066401791   -0.88156719526642
C          -4.43705076050876    8.54271533203486   -1.90369689617816
C          -3.63638200141815    8.55392003366481   -3.08306890792671
C          -2.57679894812703    7.63092795649057   -3.23285133216826
C          -3.92690836112908    9.49457061414045   -4.09232158836389
C          -4.96057662872105   10.37916276055229   -3.94763444832992
C          -5.74938676353139   10.36616168426626   -2.78722613367327
C          -5.49334867955628    9.46781799325830   -1.78718775081021
C          -2.62068293835086    5.70344059713197   -0.12608986873095
O          -3.06707029693329    5.37275491819768    0.94674928149029
C          -1.37916173589942    5.16457575505644   -0.76845027623877
C          -0.52151828167860    4.44411889930009   -0.01362505675959
C           0.85605562751516    4.09326035495528   -0.27791674956351
C           1.40801879379794    2.91120269216089    0.30284803281298
C           2.73935801699134    2.61515393499358    0.13946384103746
C           3.57246549088024    3.45814743130281   -0.61672067834083
C           3.03509838973460    4.65409509279018   -1.16946333511076
C           1.67772631291054    4.95110043701668   -0.97892784628995
N           3.81577776426161    5.50721897482516   -1.86790630266956
C           5.06707090407732    5.17310207349853   -2.02114311147535
C           5.59562666713580    3.97325495032581   -1.49261253908836
N           4.86921743078602    3.13669873342704   -0.80485414989263
C           0.59914091977042    2.03129454826959    1.14040583527424
N          -0.57313537147353    1.42353922366864    0.77828127608347
C          -1.12989608464002    1.33478675309893   -0.54995773763871
C          -0.27860020293101    0.45301515912386   -1.45655635623094
C          -1.10646905750102    0.65697376197735    1.83985319621375
O          -2.13273212548255    0.01164635592223    1.74355681093737
C          -0.18051794638305    0.85510232070370    2.92599039132456
C           0.87137705162528    1.69164247982852    2.44776725362671
C           1.79854534750573    1.91807542883771    3.53514783219547
O           2.82802138008846    2.55099701265973    3.61487210553030
N           1.24914460391259    1.18339013112352    4.60593605895055
C           1.87665739270658    1.18587374438839    5.90462218197928
C           1.20520600902119    2.16885487871735    6.86105821286117
C           0.06929586444677    0.56139900844643    4.26129510786088
C          -0.70353482846121   -0.21446904130389    5.16429674226420
C          -1.87412165077934   -0.79512304897638    4.79800588865115
C          -2.71108090843148   -1.54739592209166    5.66337207090925
S          -4.19411469080298   -2.21554510005451    5.04925879837652
C          -4.61664817671899   -2.88332330514364    6.59262542592044
C          -3.62257202956121   -2.58994602315575    7.53537947284555
C          -2.56079843213538   -1.84456264628771    7.00544158401783
C          -3.63669339517988   -2.96737117051570    8.88933407002141
N          -3.58692181918906   -3.24040047909520   10.00289702614644
C          -5.84856453020491   -3.56966887317036    6.72181721447311
C          -6.31696328295856   -4.15025331353396    7.85750165166194
C          -7.56424698275964   -4.81268925015575    7.99118370248381
C          -8.72888894023324   -4.60118897671718    7.30766175945859
C          -9.94076089859488   -5.38357561731637    7.49126663042781
C         -10.01527056473521   -6.64654177154996    8.01802649262860
C         -11.21688408295191   -7.37208128982134    8.15635017703185
N         -12.16173576001778   -8.00783893992248    8.30110488966692
C          -8.91072636738062   -7.41201152789464    8.44863249418285
N          -8.06351385352657   -8.10730687782244    8.79113279244793
C         -11.05373158063897   -4.63257190237797    6.92618273773895
C         -10.53671858658357   -3.45112232493143    6.32417428409943
C          -9.07348629230698   -3.40618486058145    6.48871386872481
O          -8.33721826520369   -2.53723311663536    6.07212755565716
C         -11.34391015556629   -2.54756751935374    5.69514502956671
C         -12.73445305726293   -2.78994309690942    5.63890903215222
C         -13.26182456603700   -3.96558926554936    6.24741278095315
C         -12.40019568328500   -4.88246033560644    6.89251670344362
C         -14.65155969236299   -4.19487975674171    6.18832059601106
C         -15.48115126701127   -3.30909947149811    5.55614671618232
C         -14.96041079695473   -2.15307174587122    4.95558547828447
C         -13.61629993618752   -1.89902581754249    4.99613275641249
H          -4.74208215399652    7.59416332808432    0.02191832293677
H          -1.97987841506199    7.67024965791610   -4.13049726920651
H          -3.31908312059015    9.49835253523595   -4.98508688904074
H          -5.17692746980325   11.09400119938025   -4.72720058030054
H          -6.56064298062982   11.07184719930633   -2.68982859642919
H          -6.09703716109575    9.45331232477280   -0.89162645588753
H          -0.90582792613275    4.15485514583859    0.96118446418913
H           3.17015600216036    1.73193649867710    0.58361636191271
H           1.30815667826083    5.89074291715950   -1.36137702163741
H           5.68745478042211    5.85930949006615   -2.58178835834017
H           6.63232992832350    3.70503867032880   -1.64544584438856
H          -1.22734023657434    2.33486374699162   -0.98044429435518
H          -2.12640959533501    0.90149490178251   -0.42516090974776
H           0.70187550163875    0.89664943422355   -1.61093736562303
H          -0.76137927826167    0.35048019121985   -2.42389382629692
H          -0.16007936993692   -0.53460867295158   -1.01670519510647
H           2.91330173726487    1.49175713679613    5.73683789316678
H           1.87153868078653    0.17276705634862    6.31676325222271
H           1.26639296949998    3.17639375404169    6.45737829829386
H           1.70906878444290    2.14905883809904    7.82346537598885
H           0.15648913645685    1.91942167532567    7.00811736186373
H          -0.33367804984074   -0.32683536268201    6.17251466653708
H          -2.22361391711011   -0.67765331546539    3.78060474183460
H          -1.71923006817508   -1.53431922793650    7.59874253925658
H          -6.43349195305199   -3.62506830522500    5.81623254131290
H          -5.68244832282970   -4.17792400375331    8.73330705538280
H          -7.59386641296650   -5.54467773258789    8.79076492154275
H         -10.92531706435044   -1.66053766911208    5.24312490196929
H         -12.83029556011387   -5.75966410332987    7.34927217960310
H         -15.04773222680857   -5.08717447336985    6.65047812675279
H         -16.54398101890614   -3.49473995646071    5.51486635278929
H         -15.62952147678625   -1.46494945490926    4.46088256877726
H         -13.20914155825304   -1.01064975504803    4.53568819140220
