99
 SCF done       -194.120955914436          0.000331849183
C           2.32414382187422    2.60375090849392    4.50284779484836
C           1.58432046976711    2.51513026298104    5.64733903642559
C           2.12090296112480    2.17036425355807    6.90714982692213
N           2.51149701020315    1.90097564762159    7.95119881685487
C           0.18204720734739    2.67287850936018    5.67539704689919
N          -0.96275172819478    2.74354484888153    5.72113659758661
C           3.72755961289261    2.26809488418650    4.33772177578474
C           4.01731973143966    2.16919905146242    2.94319545817685
C           5.26341572576508    1.83902311859247    2.49098870722172
C           6.29370690820962    1.59758299623812    3.42634984352274
C           6.01329294726872    1.70392179315131    4.82112882870658
C           4.71469006552953    2.04194603792733    5.26183715732958
C           7.05241425924987    1.46264365862515    5.74342118460816
C           8.30754257223717    1.13040039987318    5.31168473962979
C           8.58220410609236    1.02501778888170    3.93949398655257
C           7.59726611520160    1.25360517322008    3.01703192297180
C           2.80979591923490    2.47421209947841    2.16537342971921
O           2.63399505513450    2.37159238642921    0.97447771766244
C           1.80430596682905    2.93488928302619    3.17876365249517
C           0.70097406645958    3.64038473427832    2.88951986770282
C           0.26219484017933    3.96517275295477    1.53657303513752
C           0.94539492462321    4.70602207785591    0.60904020102205
C           2.24852951721252    5.41639320182323    0.75005522858155
F           2.73550339725779    5.38606773733852    2.00132846066778
F           3.21010065794362    4.93455144948902   -0.04586736819646
F           2.12905633695497    6.72107208666544    0.43516065778781
S           0.09582777837147    4.88345417992982   -0.87925375426550
C          -1.22034760840575    3.94414951186429   -0.25780934647117
C          -2.32100316182391    3.70525379901777   -1.08244555459519
N          -3.21469554377812    3.52468074981310   -1.78089525864576
C          -1.01015067810001    3.52249254765112    1.04893971986988
C          -1.87953629628863    2.72842760810945    1.86571298199177
C          -3.10529725490088    2.26675179263163    1.54025916710062
C          -3.89914208297230    1.48811008518574    2.42747909805383
S          -3.36253626302484    1.05884957558394    4.02656531188555
C          -4.82095009432619    0.17255970005680    4.34815570828370
C          -5.67976156186244    0.22990791159179    3.24424821585081
C          -5.15256324443577    0.97080403377718    2.17531528956057
C          -6.95063979279432   -0.36610144717626    3.16775006385622
N          -7.99450438169787   -0.82785010729756    3.05331580698540
C          -4.95112427323338   -0.47432930434265    5.59993894424158
C          -5.97714895710604   -1.28067979709132    5.98263116473474
C          -6.03999600399422   -1.94130558273885    7.23432796619046
C          -7.00204569448367   -2.85091236042719    7.61812728953338
C          -6.69197540839809   -3.34656491563101    8.91665138627313
C          -5.46756811896846   -2.63343799561422    9.34321384686040
C          -5.08972855212902   -1.80795008992953    8.33705061095798
C          -4.81531373607120   -2.72545758403254   10.57993255330842
N          -4.25665153305250   -2.73776184523069   11.58312963911779
C          -7.34054050389486   -4.32854032617087    9.62469199137170
C          -6.91904444543208   -4.91075738169900   10.86079612517466
C          -7.79655670998622   -5.91125358099806   11.20951645547367
C          -8.84940987481629   -5.95149498529673   10.19970988614341
C          -8.57550276828015   -5.03190982642163    9.23891174368358
C          -9.35199145423993   -4.79614554263390    8.09829192271577
N         -10.00694638955546   -4.62732579027343    7.17024409707058
C          -7.80817103182351   -6.76069973809777   12.34781016713560
C          -6.75501707774083   -7.13131439014754   13.12982178390069
C          -6.84912179472466   -7.91128260925789   14.35355092212891
C          -7.99029674281636   -8.17347645183332   15.06670154420053
C          -8.01956391486945   -8.92083080470413   16.26329288992998
N          -8.11518357684982   -9.52603871883378   17.23406018419405
C          -9.28698070052954   -7.72832315770096   14.73331132405116
N         -10.36947966532123   -7.39628129902363   14.54068706012183
C          -5.50089489172537   -8.30496550038060   14.74139896437432
C          -4.58116108143163   -7.75436831303944   13.80490636336594
C          -5.31090453183063   -6.99869139957777   12.77386955509954
O          -4.82747924298135   -6.45800967386999   11.80472935708147
C          -3.23367913844792   -7.94328605740351   13.91676787606661
C          -2.73348490513281   -8.70625508294104   14.99497124820082
C          -3.64733657349302   -9.26986190529459   15.93212675560711
C          -5.03759533885802   -9.05847214660057   15.78818931155326
C          -3.13748409903401  -10.03475124650422   17.00116190268933
C          -1.79065396375787  -10.23145676313658   17.14119571036605
C          -0.89185852716063   -9.67376514483441   16.21941255526062
C          -1.35314286433942   -8.92729151746228   15.16926655021108
H           5.45978400483546    1.76801008483007    1.43159257537074
H           4.53037912040780    2.12409604432067    6.32180876038387
H           6.83575306708882    1.54322462642639    6.79837872104122
H           9.09636661269284    0.94683430472018    6.02539258143187
H           9.57840264139574    0.76215834573362    3.61721851721794
H           7.80317324040406    1.17420676703935    1.95987388301048
H           0.05320000436296    3.99721339036697    3.68100874039460
H          -1.49151554813810    2.48963742800797    2.84849196449796
H          -3.54242946050877    2.47110874260151    0.57374245317660
H          -5.67464777882664    1.12012837855272    1.24653165043502
H          -4.12628444092487   -0.30534455167230    6.27941699706926
H          -6.79686262394452   -1.46967468388150    5.30376571841149
H          -7.83725419787139   -3.16733112902360    7.02419435269625
H          -4.24033236650816   -1.15102157190192    8.35304631532226
H          -6.05644773346091   -4.59781690770456   11.41192617415724
H          -9.68801606065238   -6.62333357112766   10.22221924578214
H          -8.78324707427615   -7.17112707139137   12.58524953528374
H          -2.55919503548661   -7.50994145752055   13.19334536980592
H          -5.70222079756622   -9.50304398089328   16.51169752352828
H          -3.83299944846408  -10.46051224085168   17.70944828577548
H          -1.40997272919010  -10.81771353071656   17.96406379129791
H           0.16770086769625   -9.83879651111834   16.34576538228576
H          -0.66646245848775   -8.49493915823457   14.45633875663320
