113
 SCF done       -215.801470000026          0.000504521968
C          -3.76524642094790    0.74839619118433   -1.22689209319927
C          -4.46661048039627    1.85495869072229   -1.62263901339623
C          -5.87221951760601    1.90651256409151   -1.72098629177795
N          -7.01134518100818    1.99921085523375   -1.82143860861896
C          -3.83969191291385    3.04026467472998   -2.05689356879805
N          -3.34219139119869    3.99206348884144   -2.46360732068682
C          -4.32442770061183   -0.58400492953460   -1.04533399994458
C          -3.27677143052729   -1.54136340300210   -1.19129407520131
C          -3.52000509901700   -2.88355932236600   -1.12457215338059
C          -4.83911399814857   -3.33397830524124   -0.89439588817822
C          -5.88573612502814   -2.38072136391248   -0.72470376165646
C          -5.60722225413301   -0.99737778718363   -0.80519721614717
C          -7.19499223934850   -2.84612810252036   -0.48586255989579
C          -7.46109587853419   -4.18677130418458   -0.42357582187346
C          -6.43111256854135   -5.12417123930219   -0.59446634988445
C          -5.14831686893292   -4.70691978267629   -0.82432558731521
C          -1.99713608361636   -0.84261623723311   -1.39918684647918
O          -0.91044936403144   -1.31346478938560   -1.63150762742746
C          -2.31577302031174    0.60686126440435   -1.20120171868029
C          -1.32669204269829    1.49018051517080   -0.93042656267745
C          -1.50713504222520    2.79342078317835   -0.37312742479048
S          -2.78195758825794    3.07141806019631    0.75573326626197
C          -2.43240821217784    4.76743956609519    0.80888933819669
C          -1.36179790154546    5.08827924321232   -0.02115843788137
C          -0.83775929919407    3.97058134022495   -0.68142309783735
C           0.23629806706107    4.05257958298445   -1.73254921561145
C           1.31029237850869    3.13732190572090   -1.41043075223549
N           2.17378838126564    2.44387366006929   -1.12991580187362
C           0.79953474300151    5.47720583567804   -1.85480760827827
C          -0.32356841299002    6.49959084186198   -1.75312885155583
C          -0.90190126052382    6.48877327974198   -0.33010693904264
O          -1.99625882152166    7.37241130825523   -0.17688421602835
C          -1.64833202078747    8.73119237233417   -0.09104795427265
C          -3.30550574908073    5.68865832877611    1.45507650131916
C          -4.67737380070885    5.75955361952633    1.29860145685096
N          -5.51984216110286    4.83685443234429    0.67436535342404
O          -6.51849532757752    5.25376626091086    0.11902983487808
O          -5.22085515877965    3.64488092262389    0.71868505469539
C          -5.14332773679507    7.06682632624322    1.70782953171479
C          -4.10174172305799    7.75106935620670    2.22170891446237
C          -2.92897872865610    6.89978402239815    2.21891024150932
C          -1.79358674961956    7.02746627597824    2.98006027075253
C          -0.58766651124050    6.24300156289213    2.84988144109460
C           0.42575652437362    6.88772926183397    3.47377446409893
C          -0.10154264936346    8.06409656279270    4.11755282862553
N           0.69864849748838    8.91599817851935    4.90435715367094
O           0.17197505667824    9.86875244665084    5.45478113482192
O           1.88545417691805    8.65377480017393    4.97412716369161
C          -1.47145695773273    8.12569247974132    3.92136742221925
C          -2.38438973619942    8.97422189702985    4.60760087334133
C          -3.64121850787034    8.57118828272060    4.91093667953443
C          -4.67170114730406    9.34804306556875    5.50761503280851
O          -5.91732439244096    8.82191895184615    5.39135161365926
C          -6.81140435255381    9.67535795081918    5.90740358594042
C          -6.11224708422707   10.78042315539395    6.41588755136605
C          -4.74546502640728   10.57187986149082    6.14376367670080
N          -6.65952597506430   11.91943043475734    7.05716990518079
O          -7.86371483426887   11.95217374376606    7.21466653180727
O          -5.88497046622209   12.78573513436329    7.40172632920267
C          -8.19583938822173    9.38286094098374    5.76494663029382
C          -8.57014883822398    8.34800772042443    4.96760698816232
C          -9.90819581327646    7.98522366084816    4.67506225587494
C         -10.22418966397608    7.04833532223079    3.73510938920080
C         -11.55223806835787    6.58000781786583    3.36399036563808
C         -12.73379094596086    6.91349738803114    3.97278979861809
C         -13.99467591998514    6.41840003347916    3.57522213308094
N         -15.04994559037649    6.05638488886419    3.30583037697532
C         -12.87410037985374    7.77372337874978    5.08237153370433
N         -13.07200921197357    8.45236976365701    5.98700651058012
C         -11.40570281482341    5.66334764874670    2.24155934322548
C         -10.02008546732049    5.54333009454964    1.92577040046097
C          -9.23273823244022    6.36178134382969    2.84803339171495
O          -8.02155982196599    6.46018235777755    2.87671855364032
C          -9.57398705804987    4.75980090933402    0.89817171638108
C         -10.50985051787515    4.02400612669802    0.14045879486456
C         -11.89767971624171    4.13039901214047    0.45265134689362
C         -12.33051571755294    4.96601803688624    1.50811467724509
C         -12.82147631839461    3.39018818465257   -0.31243576316304
C         -12.39457718575222    2.58111014667337   -1.33116429270505
C         -11.02813834178074    2.47548967960700   -1.63248876148329
C         -10.10206710815494    3.18319708420382   -0.91387599848360
H          -2.71572829705759   -3.59355803943186   -1.24706495093523
H          -6.41152655816268   -0.29273079219152   -0.66125892582227
H          -7.98513067799095   -2.12094521572774   -0.35751426381888
H          -8.46761121272043   -4.53313581804266   -0.24280924597966
H          -6.65926496982874   -6.17811447961468   -0.54250821613737
H          -4.35112276136785   -5.42368788279613   -0.95588942900621
H          -0.30996644340726    1.15107069347185   -1.10340683956370
H          -0.20065214241092    3.74332360457317   -2.69165351552069
H           1.31945473666913    5.57698281863099   -2.80839909116180
H           1.52585476658484    5.65390246111149   -1.05660576897446
H          -1.12537756146080    6.26216302284407   -2.45471605246348
H           0.06275655841276    7.49203065219729   -1.98634373555144
H          -0.10491579729426    6.78029644397267    0.38100459588235
H          -2.57432567001198    9.26673723009280    0.10743632725455
H          -1.21372288701033    9.10415642489945   -1.02288101571969
H          -0.93968492718366    8.90620200824642    0.72877060228424
H          -6.16591041065251    7.37472686487481    1.60474765346905
H          -4.11872998923133    8.76188368973302    2.57582462983256
H          -0.51319447198857    5.32177684682312    2.30846296212590
H           1.45783280248579    6.59756608947178    3.53000374996327
H          -2.00865468256175    9.92405377948356    4.96146892453269
H          -3.96403598029110    7.57391061479017    4.64279969314344
H          -3.94300551826251   11.23281948558608    6.39869771484057
H          -8.90107523942345   10.03741702829271    6.25493023385100
H          -7.79386494087863    7.76944722454881    4.48649460101023
H         -10.69192098445162    8.49741068481021    5.21749397632334
H          -8.52348934094078    4.71504293472099    0.65214824337416
H         -13.38804575002770    5.03303631680760    1.70870264522360
H         -13.87259619738083    3.47275570653836   -0.07705284268350
H         -13.11110027890432    2.01728953662983   -1.91010497099452
H         -10.70949984915021    1.83120031694317   -2.43788881381145
H          -9.04945811386674    3.10373143305699   -1.14006405295378
