115
 SCF done       -217.167837688085          0.000557690912
C           1.58074618896519    0.40851401169912   -3.09914385296451
C           2.04800262825487   -0.11029254786905   -4.27305690599182
C           2.57876639486297   -1.41094121200068   -4.41083423941407
N           3.02223516959077   -2.45601393220032   -4.57583443240427
C           2.09394193342048    0.61710686718229   -5.48198557547568
N           2.18177212544759    1.18848844597488   -6.47320479257492
C           1.58136060707829   -0.23941626380235   -1.79476522315586
C           1.12178886900715    0.68701369028297   -0.80994153875266
C           1.02384492419091    0.34638007889521    0.50951109531355
C           1.38338633286282   -0.95812441979443    0.91318534602448
C           1.84072239880399   -1.89024924250087   -0.06404631838507
C           1.93381939779134   -1.51054511181259   -1.42206492629524
C           2.19412657942283   -3.19036078475463    0.35152559793602
C           2.10021222268656   -3.55408125402095    1.66740933323184
C           1.64900663286313   -2.63615439635769    2.62798261900582
C           1.29856178229809   -1.36563052206706    2.25918614557421
C           0.78620593208873    1.95866517706332   -1.45760162395740
O           0.38452305457545    2.98838544443062   -0.95920835381437
C           1.02572073060767    1.74046394796054   -2.91094605197206
C           0.64251497844069    2.66753536019004   -3.81055812896284
C           0.00988133302570    3.90315775540784   -3.38484561461309
C          -1.35073515183248    4.06919383534188   -3.35085964415725
N          -2.26246697362525    3.06467320583319   -3.70535063504216
O          -3.45012309524360    3.29617334831269   -3.59520629125628
O          -1.79364158354899    2.00762010136126   -4.11077046977469
C          -1.67929765540189    5.36946679094399   -2.80405365337501
C          -0.52321167547570    6.01454222267475   -2.55286925686458
C           0.59568241153563    5.17320613371064   -2.94384660403843
C           1.93573077525246    5.46598146620149   -2.92929801247561
C           3.00394701958757    4.51079842786305   -3.04470321493022
C           4.15249293582116    5.07962626668084   -2.60255137813987
C           3.89372880904364    6.45503843971374   -2.27124915860741
N           4.90860289264822    7.32660131302399   -1.84038179913195
O           4.64383789191792    8.50735446246009   -1.67628241070850
O           6.01098115565591    6.84227656775017   -1.64666819137873
C           2.56249942930198    6.75347323321629   -2.53905976653699
C           1.98127694592516    8.03851404410047   -2.52525515427265
C           0.96402619350694    8.44295421238718   -3.33900075315863
C           0.36040885915034    9.72971810746512   -3.29899123729546
C           0.65250781985134   10.70856682371808   -2.30679811966003
N           1.50553634417949   10.61355960638933   -1.28956561537696
S           1.49122575006214   11.98221843249066   -0.45242240450443
N           0.38735950643435   12.76343261291929   -1.31884335777623
C          -0.01524568962698   11.97992153158209   -2.31790364526679
C          -1.00157700517721   12.30069188842102   -3.29293242742177
C          -1.25288991815757   11.31382616300473   -4.25018947452986
C          -0.60169774751571   10.09280389329652   -4.24922119775454
C          -1.66647003230351   13.55658783547094   -3.19810694403120
C          -2.65686943543297   14.00854487953709   -4.01344832757682
C          -3.33619463430566   15.23727162642379   -3.83713608764718
C          -4.36606802308932   15.70828739071336   -4.62885352780928
C          -4.83425078434262   16.94565432957483   -4.11116769225239
C          -3.99948263453504   17.22990182316901   -2.92570605706523
C          -3.11348752332448   16.21301834889338   -2.77627974785245
C          -4.07838147027252   18.34999903493373   -2.08970998594671
N          -4.11296153088318   19.25445811768802   -1.38269220123453
C          -5.86670432788966   17.72397908247076   -4.58621592703924
C          -6.37907193319236   18.92732265972010   -4.02688853136171
C          -7.42994853664018   19.38120513996720   -4.79971691449095
C          -7.60221694070667   18.44693577812912   -5.90701641159425
C          -6.68219046307923   17.45601316978065   -5.78748690902176
C          -6.54170422137669   16.37890435702315   -6.67027296189983
N          -6.44709613953012   15.50554713052743   -7.41048680049581
C          -8.20384075995974   20.53855887159328   -4.54904609591994
C          -9.22641312446765   20.97024467871491   -5.34021182834663
C          -9.97287787122240   22.12819322101777   -5.03119540861007
C         -10.99569685551666   22.61584941582851   -5.79682545444247
C         -11.80460006831098   23.79082220724098   -5.52763368469371
C         -11.73474560960582   24.60447780390819   -4.42559753710429
C         -12.55835527213265   25.73210447817703   -4.22160919203646
N         -13.19303001906608   26.66050759282060   -3.99124641730916
C         -10.85381039394813   24.44478300254629   -3.33551165425844
N         -10.17557527880641   24.38637022099493   -2.41051810699156
C         -12.73400771774246   23.95639710213747   -6.64002609420567
C         -12.52444459748496   22.89946299295621   -7.57138210053120
C         -11.45032840265997   22.02073053432390   -7.08438602623615
O         -11.02876135976036   21.02214371692972   -7.63049449512985
C         -13.25289254506365   22.79294183628066   -8.72122457921693
C         -14.24573755243957   23.75819449038456   -8.99934558519494
C         -14.46363450058901   24.81864153746743   -8.07267297918713
C         -13.69289766525151   24.90260097325866   -6.89040298249413
C         -15.45772423360641   25.77637106928223   -8.35895295361783
C         -16.20075848441855   25.69264908481377   -9.50502800734637
C         -15.98428803112119   24.64887393760932  -10.41719179624655
C         -15.02767933932401   23.70192310460884  -10.16969646072514
H           0.67234530785155    1.06414341107283    1.23581208540045
H           2.27756319945698   -2.23911459538738   -2.13940863735952
H           2.54087186687200   -3.89369198189860   -0.39107964097969
H           2.37285723652681   -4.55208679968819    1.97572566377084
H           1.58016200953769   -2.94086693496329    3.66138574933506
H           0.95021463929848   -0.65467739837968    2.99390672042502
H           0.72614234756111    2.49642160301105   -4.87681552793648
H          -2.68371515584871    5.69868000589092   -2.62140369246152
H          -0.42065065510741    6.97453608171154   -2.08904045403071
H           2.88171805236080    3.49558978369316   -3.36349934218433
H           5.12047786796934    4.62354405990379   -2.51286520310360
H           2.45289472902218    8.77763119610348   -1.88810461178633
H           0.59710086511464    7.77361049368878   -4.10787998267792
H          -1.98570266105766   11.50265509095133   -5.01879765413464
H          -0.84893311420099    9.37450954590487   -5.01762263319491
H          -1.33494656227748   14.16973792174080   -2.37180010991141
H          -2.98921498961615   13.41105285134088   -4.85176785665812
H          -4.76665394562538   15.21462408236044   -5.49243148845791
H          -2.37079002950294   16.13648851409732   -2.00477122300450
H          -6.00766482992018   19.39800101067292   -3.13762704693053
H          -8.33839353768920   18.53305526772856   -6.68378773439514
H          -7.94829231201580   21.10330509572787   -3.65996585666650
H          -9.49256971668370   20.42871578663283   -6.23493665509836
H          -9.70014599790546   22.65107458760689   -4.12326410326379
H         -13.07232824983946   21.98117499574110   -9.41025405060817
H         -13.88262275460356   25.71913760020266   -6.21225597460804
H         -15.62085130356919   26.57818607354159   -7.65387236125943
H         -16.95992349491005   26.43095824552023   -9.71523687073810
H         -16.57925664781019   24.59883674453069  -11.31677275269259
H         -14.85641230453191   22.89580085610477  -10.86800296781428
