116
 SCF done       -211.633940853902          0.000730719886
C          -3.54074807773789    3.00576507734858   -2.65891034687789
C          -3.43240605727085    1.64030437127358   -2.67699231352313
C          -4.42938816612253    0.77869540591573   -3.18303221678616
N          -5.19759804636364    0.02452827822352   -3.58157604876747
C          -2.33291147186902    0.89111942891147   -2.20531027726290
N          -1.48794325608078    0.20236593458948   -1.84495782233166
C          -4.68515697763319    3.77120689632952   -3.14660286497904
C          -4.42330423494966    5.15832673474283   -2.94869319314918
C          -5.31762253999476    6.12566594570941   -3.30760471060401
C          -6.54372475136712    5.74280809382217   -3.89477172578854
C          -6.81527341384572    4.35885326574586   -4.09866889377367
C          -5.86791340457722    3.38043339702577   -3.71575660577596
C          -8.04150830161056    3.98827573575710   -4.68633178403544
C          -8.95647233581694    4.93726543271007   -5.05504203726920
C          -8.68792505468956    6.29916544578960   -4.85343016069636
C          -7.50678983850288    6.69366164741574   -4.28531344569341
C          -3.10399002112542    5.31122250006688   -2.32967576281245
O          -2.55107405760579    6.36012034554938   -2.03540715657799
C          -2.56601697548075    3.95660112992152   -2.15458108497054
C          -1.33627684090433    3.67582680645747   -1.62057698958412
C          -0.38568094817855    4.55917209668681   -1.08844943159802
S          -0.46164244160777    6.28528251218084   -0.93275907599849
C           1.11086383083262    6.37245993228385   -0.21192980307452
C           1.67793324710044    5.10702628546137   -0.04581106960456
C           0.83758918901243    4.07338306395280   -0.56710908636809
N           1.19042349991231    2.78516569743548   -0.53582936058837
C           2.33757809732101    2.51127792552844    0.03121704312763
N           3.12392446646721    3.36403384592878    0.68760708272133
C           2.79911677964446    4.64087511207579    0.68593029286664
C           3.53031817583522    5.52924634202058    1.52260417036878
N           4.06481549957708    6.26695596839636    2.21678868036751
C           1.62217424448797    7.66231250013208    0.11682807658670
N           2.87027855117713    8.14567274679917   -0.17356434032300
C           3.86932512282700    7.52259008540144   -1.00816702465040
C           3.40701582378856    7.41406169034890   -2.45854632076929
C           3.00149698359262    9.50354451580625    0.22185302223340
O           3.99543397586489   10.16329994853154    0.02123986265017
C           1.73124720423198    9.81456522292764    0.83700043937658
C           0.90292733620647    8.67802545632419    0.73409301570622
C          -0.35411750152263    8.98109668307289    1.38537546692619
O          -1.34964661936051    8.31898942706418    1.57306285753079
N          -0.21284773847901   10.32198195714708    1.80717889454857
C          -1.27808790737039   10.93177121629604    2.56806959677513
C          -0.92797007727434   11.04810551654462    4.04904373094578
C           1.02450016329569   10.83412183812878    1.48415521689458
C           1.55527997460796   12.13402917534826    1.64287260935408
C           0.95394103545781   13.26202004175065    2.11584577430863
C           1.54893533871187   14.54411280502028    2.11418116715041
C           0.90862974762772   15.70665336318404    2.50274765786365
C           1.76982975829114   16.81459194677352    2.29313692082628
C           3.03007450024973   16.25228599984366    1.76711975997474
C           2.88739051454624   14.90594435289969    1.66388881515151
C           4.18620019098607   16.96764290425454    1.43278810217941
N           5.14710458237549   17.53036418076581    1.15195153102437
C           1.47676689341880   18.14913474024244    2.47966362058542
C           2.29133963199338   19.27466166633488    2.17929005429738
C           1.58609136354123   20.43410572403271    2.44273977345628
C           0.27665704799281   20.04947301202571    2.95552345963637
C           0.20109084299240   18.69400327487660    2.98382926949885
C          -0.90800210391917   17.96463341860564    3.42669018437537
N          -1.83383478384203   17.39245818410260    3.79506879474988
C           2.04118035888943   21.75504119007895    2.22270348124631
C           1.28279362363487   22.87053529526432    2.42271309628783
C           1.76614356989601   24.16791268587834    2.15028519620617
C           1.02925282863930   25.31179059422397    2.29555728874202
C           1.45936742281543   26.66908305502200    2.01495833255709
C           2.69701788517193   27.06882399659806    1.57878204120279
C           3.05037225488379   28.41100940888191    1.32448094207764
N           3.40433429400503   29.47875490539433    1.09468670429674
C           3.79540570422917   26.22226490791179    1.32117836144203
N           4.73730394281602   25.60665535870673    1.09085983227183
C           0.33297736492586   27.55807817968992    2.28083891894555
C          -0.76956284141637   26.77592904788083    2.72853142185300
C          -0.38420002095848   25.35654721609333    2.76074389274609
O          -1.08659799765400   24.42527375880432    3.09726873965199
C          -1.97061110781507   27.33722098161758    3.05444945694593
C          -2.12945197283470   28.73635145371765    2.94409714672646
C          -1.03231122494085   29.52727754776433    2.49573661242937
C           0.19994908565411   28.91695626368735    2.16678824922281
C          -1.20150929018619   30.92262912238019    2.38718727084854
C          -2.39580622924724   31.50977662238686    2.70572425055813
C          -3.47514394065637   30.72988046814299    3.14734314506336
C          -3.34483701806565   29.37253056637839    3.26411263736584
H          -5.09234604196612    7.16896890159044   -3.14365617979844
H          -6.10667092040631    2.34273153299240   -3.88505622687673
H          -8.24478120318938    2.93867240665216   -4.83961303876974
H          -9.89298010932309    4.64287339849748   -5.50425483389884
H          -9.42101360216077    7.03414624556350   -5.15013833912573
H          -7.29387245162767    7.74073952771864   -4.12704677632487
H          -1.00952060246631    2.64320895859604   -1.57126904928940
H           2.66301626534201    1.48089893965892    0.01497566168011
H           4.13169990607041    6.53743118799311   -0.61542094869428
H           4.74989870646363    8.16737423511780   -0.94155345537763
H           2.52741024081099    6.77845274116109   -2.54250146487944
H           4.20187970376114    6.98743934943962   -3.06357028170190
H           3.16246407251520    8.39875238192605   -2.84964420176692
H          -2.13794363101913   10.26510994250743    2.44963953193514
H          -1.53671304423368   11.90210031632916    2.13685606217043
H          -0.76702791772155   10.05814045391159    4.46883674025714
H          -1.74658595895071   11.52216945561531    4.58329528425844
H          -0.02492746517560   11.63543696460604    4.19867603813032
H           2.57207009650344   12.20473559140901    1.27839993523425
H          -0.05664873447301   13.23893049392636    2.49353215793515
H          -0.09308918137735   15.77072155946297    2.87990735405595
H           3.63410488768943   14.21881015963455    1.31286508187381
H           3.28893126425619   19.22349230631029    1.78856086506119
H          -0.49544871419278   20.72928602877008    3.26274141820428
H           3.05391636177173   21.86141411500597    1.85187343973426
H           0.27054191036734   22.78323721990615    2.78627856158717
H           2.78550032750854   24.24051411655362    1.79303409734511
H          -2.78992550628167   26.71958107387753    3.39150162899117
H           1.00885984969837   29.54548079300978    1.83036487975947
H          -0.36779871360439   31.51909270370284    2.04684581526220
H          -2.51548104477661   32.57928922857407    2.61905054196583
H          -4.41022548089803   31.20988395730362    3.39441521704182
H          -4.17220963017817   28.76659683648559    3.60347347603335
