97
 SCF done       -178.052131236902          0.000368939240
C           4.08165394376913    4.98185280459780   -2.73270445120788
C           3.82660237316203    5.34629806115400   -4.02893862454313
C           4.79409011622392    5.32762245960703   -5.05657445175242
N           5.53129689523853    5.34309946662910   -5.93628208296670
C           2.57490615515414    5.74644123344346   -4.54307775451497
N           1.58991225261528    6.06155980501380   -5.04318100355494
C           5.34962140466077    4.46251605595950   -2.23882699585751
C           5.16137857536523    4.01340497306865   -0.90134962809833
C           6.17717292351574    3.46301086497152   -0.17376822977137
C           7.45624655110978    3.34163665972851   -0.76080758028651
C           7.65574712519118    3.79673856112902   -2.09656133051818
C           6.58285962432037    4.35749143872072   -2.82647122828473
C           8.93770188278022    3.67595975978756   -2.67060260239981
C           9.97357083261799    3.13142492060265   -1.96141979357573
C           9.77590967864043    2.68337975344522   -0.64670248900594
C           8.54400837609732    2.78576446321094   -0.05922746513322
C           3.76846079118034    4.24999717761870   -0.48984810763314
O           3.27594368719042    3.93413992261737    0.57284802385299
C           3.13022045716714    4.96036660101775   -1.62923417393977
C           1.93738664979373    5.62315643804879   -1.65530546698119
C           0.89359597117335    5.70674110236733   -0.70610196545310
S          -0.39352752481974    6.84372044908742   -1.07305034924348
C          -1.25763587819011    6.42767586901361    0.36504612707801
C          -0.56511951975011    5.43879810795308    1.07810327951904
C           0.63335989754021    5.04141355315835    0.47641442714191
C          -1.05525003313724    4.91336644561510    2.28698338230201
N          -1.47433758246991    4.49968414493881    3.27101887557701
C          -2.48660780023696    7.01931408437681    0.74084873024327
C          -3.09451871459022    8.00807139594832    0.03877667021044
C          -4.32498887674962    8.61657202766555    0.38692553691030
N          -4.86115627497901    9.62833579337383   -0.35969087870109
C          -6.05119102339819   10.03412269506019    0.15324741727078
C          -6.29199529831310    9.25437616327632    1.30827676169418
C          -5.21053313583312    8.37858236723388    1.43917339872288
C          -7.38821090642731    9.42920561554087    2.27967054003394
O          -8.02963319969711   10.45138714877847    2.35347541494387
C          -7.61734202137315    8.26010620153813    3.20252000476280
C          -6.82304442708896   11.04711568075329   -0.48227275391648
C          -8.17815023731916   11.26034490841189   -0.42947056715643
C          -8.50793888809683   12.37289274018130   -1.25717387406257
C          -7.22952561583185   12.87582577396689   -1.80288350423278
C          -6.24143875592750   12.05926839414934   -1.35964946881477
C          -7.01790620566124   14.00308621898736   -2.60665830604822
N          -6.76543913889767   14.92881936346875   -3.23779891991605
C          -9.75752506409003   12.85948422841650   -1.55001075111117
C         -10.06573436540659   13.96677226101693   -2.40028090870611
C         -11.43064570094509   14.12912484132166   -2.45317858839602
C         -12.03181022487522   13.10792308502131   -1.59898918255258
C         -11.04827741339863   12.33411270923587   -1.07271956431453
C         -11.25099996884317   11.20948129812726   -0.26290345386769
N         -11.45959853427054   10.27620725318481    0.37280968482850
C         -12.21724588139219   15.11286751791684   -3.11058059781060
C         -11.87987235767360   15.90225178475608   -4.16936011251773
C         -12.67953568520631   16.99919860607782   -4.69481995788667
C         -13.86847678029315   17.46664035042676   -4.19647757299918
C         -14.59239026515330   18.54129212349826   -4.75661825928435
N         -15.23776169092016   19.40092259811647   -5.15960646626785
C         -14.55889057433106   16.96203320006718   -3.07431838528198
N         -15.18781551835206   16.62172012771077   -2.17531654134299
C         -11.97483305404846   17.55760562206105   -5.84282274384878
C         -10.79129819255815   16.79872296781190   -6.06399896537321
C         -10.69966461170108   15.72121849809992   -5.06699351705287
O          -9.87837759874114   14.83239108845866   -5.04360739673024
C          -9.91541943505834   17.09558083700815   -7.06826039282527
C         -10.18437319600215   18.19611163507033   -7.91137200934186
C         -11.36935983577313   18.95965995851981   -7.70163904729905
C         -12.26039752257180   18.62253266389791   -6.65738619221920
C         -11.62928969021620   20.05553709305818   -8.54996086435391
C         -10.76020682649749   20.38481456429843   -9.55416451824592
C          -9.59248500093122   19.63393725433705   -9.75764710462753
C          -9.31085320000065   18.56262855325457   -8.95407104779567
H           6.00663212264624    3.12696194346652    0.83827468564695
H           6.76795283188341    4.69780082811136   -3.83282857107310
H           9.08455948407574    4.02106703138088   -3.68350398203422
H          10.95160914224547    3.04282923620677   -2.40999615153766
H          10.60464818590281    2.25697136589048   -0.10163751265103
H           8.38590114581094    2.44262736788687    0.95269686756953
H           1.74334006897737    6.21777834101705   -2.54097244766703
H           1.29236078071818    4.29872885871592    0.88866483745964
H          -2.93337656591801    6.64065547101211    1.64975620711607
H          -2.61397223655625    8.37398200983486   -0.86142200677872
H          -4.45573290986978    9.98366896098207   -1.21144592134855
H          -5.06452693783246    7.66128185818583    2.22082950526998
H          -6.79720558621079    8.19563791934828    3.91532629158823
H          -7.66234172783908    7.33077150279918    2.64076827612924
H          -8.54453236290264    8.41064962757586    3.74854801376463
H          -8.88910652247344   10.68779753725408    0.12985493973203
H          -5.19318323131040   12.17302549933352   -1.57133056708009
H          -9.33013095142180   14.57198314032182   -2.88880081770409
H         -13.08923493764882   12.99258903344995   -1.44455997349394
H         -13.21071805629503   15.22864525621499   -2.69332479541325
H          -9.02402007302685   16.50246265537524   -7.20828887461837
H         -13.14754048421347   19.22154072044300   -6.52815005299282
H         -12.52881446621267   20.63145434981542   -8.38896932200080
H         -10.96729132704646   21.22695215904908  -10.19732841194754
H          -8.91747230753531   19.90900417968287  -10.55423971574344
H          -8.41359998905773   17.98058276146886   -9.10512058430693
