111
 SCF done       -210.180166070853          0.000371177456
C           0.06473641132125    1.20418616084373    2.28179207954611
C          -1.28732255380544    1.27524870291758    2.07241956599703
C          -2.24772839393532    0.76779033268443    2.97043146447759
N          -3.07195556632958    0.39692838531272    3.67812479906452
C          -1.87550228880417    1.84717970906729    0.92816801843004
N          -2.40220662810369    2.30839499823072    0.01740016787128
C           0.72249805303896    0.47771012011848    3.35951306251748
C           2.08366542708670    0.25570180949663    2.99544853269434
C           2.94596524049096   -0.41188816142873    3.81657309356157
C           2.48162296839325   -0.88487819075936    5.06489297744403
C           1.12595002657802   -0.65441635603686    5.44014923935180
C           0.25259559105888    0.03193763872773    4.56550633746653
C           0.67999753596938   -1.12097557522346    6.69346487516987
C           1.52951011771607   -1.78406171685966    7.53668347173439
C           2.86339581490111   -2.01119396440833    7.16608712125231
C           3.32876658046045   -1.57250588656846    5.95608164625430
C           2.34501502488302    0.87335991230010    1.68316858500802
O           3.35447608003073    0.83385204926074    1.02259838102138
C           1.09826023458298    1.63926637969963    1.36647625787303
C           1.14404023201689    2.62722771364157    0.43911960472497
C           0.24249569730121    3.72049703871448    0.26184982671235
C           0.13839046949899    4.35461871364309   -0.99878507344520
C          -0.71753669534532    5.49240453221461   -1.22713359094035
N          -0.72636397444407    6.09066440469946   -2.43035645905029
C           0.00856762629675    5.59558435817756   -3.39600076414227
C           0.82558059609677    4.43740421402894   -3.18003305418564
N           0.87686037490006    3.86155104356167   -2.00694953228346
C           1.60379291965208    3.91767792463642   -4.24661378065412
N           2.21736508363789    3.53363328969021   -5.13365184797030
C          -0.01068887199907    6.22656494065133   -4.66558609560351
N          -0.01315430908279    6.71321520351615   -5.70228695518137
C          -1.48548147414383    6.04654371864940   -0.18200089761092
C          -1.39217974504357    5.40720786046111    1.06676383458456
C          -0.52228508237632    4.28243131242492    1.30135518415471
N          -0.55098961735912    3.90506558220763    2.58385472037407
S          -1.59391395080099    4.83218326074731    3.37523924404934
N          -2.07290864845930    5.74672871184584    2.16372787914479
C          -2.19420897481759    7.29448234799874   -0.22239981358447
N          -3.02278439958559    7.78805468628132   -1.18151135353369
C          -3.55160176166972    7.07907629184178   -2.32324437876298
C          -4.37751311445892    5.86760867645319   -1.90409444538938
C          -3.49891789313368    9.08028392431727   -0.83881055193770
O          -4.27714782249928    9.71042847764767   -1.51822062984355
C          -2.85163521341742    9.37380922016517    0.42206461797430
C          -2.08103133039959    8.25020076289859    0.78706168575540
C          -1.37965211890070    8.57242778861932    2.00976456128510
O          -0.58163799712808    7.95910644153271    2.68782370547672
N          -1.81785891022434    9.87616541745878    2.33131874352163
C          -1.29094945762996   10.50868733881424    3.51710127011054
C          -0.13215656386282   11.45089346164053    3.19701427460569
C          -2.68207575012799   10.37464567376749    1.38154335677439
C          -3.32759786821972   11.63374881114371    1.30009745745015
C          -3.21488411064407   12.69983141711735    2.13369639257218
C          -3.88838995507581   13.93787819979411    1.97551017169179
S          -3.56125195135655   15.19248356668271    3.14190803464659
C          -4.63930332013577   16.29428903535376    2.35132549949673
C          -5.21894778050389   15.68491218395649    1.23019838349505
C          -4.79538462833492   14.36678223619236    1.02354857361375
C          -6.13854371236931   16.35253357497888    0.40010961689833
N          -6.88676702250626   16.89953392417583   -0.27429454857707
C          -4.84939789816730   17.60834731241036    2.82592952970761
C          -4.21782859281097   18.09646214167393    3.92815560452001
C          -4.40557259647271   19.40629708873191    4.41956380616279
C          -3.76745386375537   19.90142962855554    5.52285440228954
C          -3.90105928496067   21.23205301261957    6.08988798034701
C          -4.70738528312525   22.24381628434260    5.63628550624205
C          -4.79045393179097   23.51792684999617    6.23743646126021
N          -4.90666062682139   24.57241046099530    6.67599761201248
C          -5.56813953955425   22.17551453660868    4.52072492850731
N          -6.29340938159681   22.20189677365351    3.63077352341042
C          -3.01889870883680   21.31388546414400    7.24966635563539
C          -2.35627611258480   20.06355080729148    7.40729080608216
C          -2.79192255120338   19.13872918882085    6.35065014237458
O          -2.42105458902874   17.99219712536213    6.19992821765441
C          -1.46300488707665   19.83824657622171    8.41498268355132
C          -1.18386634465788   20.87503642472238    9.33211469674062
C          -1.84140577890394   22.13039801648669    9.18266768339479
C          -2.76190064517925   22.33325375507642    8.12867938822242
C          -1.55549653901328   23.15910176096491   10.10334397914913
C          -0.66411665775538   22.95901169024757   11.12217854175425
C          -0.01757049471373   21.72243830241214   11.26798078805557
C          -0.27194668579915   20.70240462306979   10.39184429376482
H           3.97195133657814   -0.57368761202322    3.52111781699890
H          -0.76560572078438    0.20435867961104    4.87781096951365
H          -0.34853509477592   -0.94634175669349    6.97323381569916
H           1.17817667272045   -2.13752078476936    8.49445302148162
H           3.52037274058363   -2.53478915101868    7.84423638827418
H           4.35480114500350   -1.74445172050842    5.66566725574986
H           2.00226499041114    2.61457785442637   -0.22499323004451
H          -2.72608662307784    6.77504123540755   -2.97167810926489
H          -4.17735464457346    7.80096654984041   -2.85514731262976
H          -3.76470549275827    5.13703451246849   -1.37978019567196
H          -4.79946022632534    5.39330504488157   -2.78557734735118
H          -5.19155924199134    6.17052584538560   -1.24924522223381
H          -0.92047244722084    9.69263349772616    4.14545989663039
H          -2.09562011177750   11.01581958838862    4.05391618376645
H           0.69518487897736   10.88220785409288    2.78011996776962
H           0.20695178515663   11.94060362882047    4.10570320091654
H          -0.42286197671241   12.21004373389604    2.47444634457450
H          -3.97517290549885   11.71033241894375    0.43653428942343
H          -2.56608173084304   12.66407440068281    2.99375534410973
H          -5.14191401234809   13.75735766040578    0.20849295998753
H          -5.54325796544785   18.22451614853513    2.26674193635849
H          -3.53001734680206   17.45669402407722    4.46510848545965
H          -5.09582811100343   20.03739956645161    3.87500219876186
H          -0.97555566548871   18.87916555682050    8.50956896041649
H          -3.24063125402982   23.29573796922949    8.04547729029034
H          -2.05535825398586   24.10952388559607    9.98762700010232
H          -0.45200755834759   23.75320077196881   11.82207803968152
H           0.68281573435635   21.58226280024299   12.07767576970630
H           0.22251944512409   19.74790634279869   10.49846480719947
