97
 SCF done       -190.021969664534          0.000587845494
C          -0.89375456601537    2.71869630700122   -5.17055321776760
C          -0.09597887725198    3.61536178777332   -4.51893271372263
C           1.13080518046364    4.08652857116418   -5.03254831802429
N           2.13286689854549    4.49626600122373   -5.41230050148305
C          -0.35419866443314    4.09026931193132   -3.21515057070939
N          -0.48774323917242    4.44990596265120   -2.13365027145436
C          -0.55102067317860    1.99450036721505   -6.38708118453299
C          -1.36772248855090    0.82697548594412   -6.47045491062399
C          -1.23544979212557   -0.06822534810062   -7.49389629136037
C          -0.27302301141460    0.17170934484895   -8.49950470486524
C           0.53381526666543    1.34520933413647   -8.43058366753218
C           0.37963961479485    2.25240439850409   -7.35799007053315
C           1.48533171259900    1.57535072929088   -9.44527799556431
C           1.63656022467667    0.68962794045949  -10.47700926748997
C           0.84295498747474   -0.46571937978302  -10.54340257297570
C          -0.09091971309320   -0.71929574833703   -9.57597089069555
C          -2.30771247946696    0.80075782789830   -5.33822338351553
O          -3.10699121557513   -0.05306464692612   -5.04001981124296
C          -2.11233073667517    2.11744867800989   -4.65051112064326
C          -3.06873652498838    2.60712456302532   -3.83438977114464
C          -3.19107518072528    3.96826082854947   -3.42021000978475
S          -3.97327601965362    4.43292294268114   -1.92381797883044
C          -3.60188023678342    6.08461724575477   -2.39972950299573
N          -3.00779334047278    6.14632725249963   -3.55359483256572
N          -2.77670197010732    4.99221973304693   -4.10940626675957
C          -3.88110342665079    7.23231507555637   -1.59676244809015
C          -4.37977148294535    7.15773504980278   -0.35520680575141
C          -4.62171237723934    8.29063024646015    0.51571981112257
C          -5.17968351364089    9.48013986122849    0.12057141095894
C          -5.72236029269616    9.85840892888507   -1.20917067172178
F          -6.35967832910474    8.84579540032689   -1.81972069049342
F          -6.60392319408878   10.86593963101118   -1.12225894908631
F          -4.77331319784483   10.27571834598826   -2.07332233766000
S          -5.32381612975525   10.61787289714566    1.41574453376471
C          -4.60997917610087    9.48210601603966    2.51610401204842
O          -4.41302680847124    9.78403343603691    3.79961329229081
C          -4.83976983943566   11.05568957965085    4.23994726314543
C          -4.29114962877461    8.27861563633633    1.91294460565019
C          -3.67408460962161    7.14693640885634    2.55597285426882
C          -3.20771588140463    7.10800267826888    3.81454393556476
C          -2.60632901555329    5.94944805750432    4.43991842880482
C          -2.73903530760205    4.65612877632813    3.93302110664524
C          -2.16320337649201    3.57639140210860    4.57791867499716
N          -2.28289973322850    2.29796132271834    3.91586674518830
O          -3.33472009858577    2.06903499520645    3.35582464847105
O          -1.32548333063659    1.55747728550552    3.92228887438612
C          -1.43719299429165    3.72674157165140    5.76939273634302
C          -1.27918926334787    5.03165123898084    6.24842827978356
C          -1.85569665711598    6.10793143070156    5.61298715184249
C          -0.90672513912171    2.61830664171337    6.53818694387126
C          -1.57024197121249    1.46691983414713    6.75507291478046
C          -1.10938344062409    0.33361130495200    7.49052461688455
C           0.16089329206823   -0.11317180306991    7.67778685710430
C           0.48504012605315   -1.36084283569531    8.36002781910841
C          -0.25360136906534   -1.95140218150718    9.34845983722615
C           0.12490114966971   -3.14054410715610   10.00651725978956
N           0.38516863542227   -4.10481680392542   10.57202239045385
C          -1.44714777488980   -1.41636986624786    9.87946495067526
N          -2.40532359287341   -1.02106124592687   10.37292333302053
C           1.77852685831130   -1.81052735401913    7.86888162079320
C           2.32904915785678   -0.78204806311686    7.05234546043948
C           1.40394120788513    0.36555666724141    7.00736106274136
O           1.63938422541211    1.45688000323749    6.54086956752031
C           3.54369398306458   -0.91818583542709    6.44487644612369
C           4.27007783766098   -2.11728150538088    6.62106205749354
C           3.72176874456082   -3.15421922529912    7.43070797437277
C           2.46533902325416   -2.98122327000564    8.05456346334082
C           4.45401672233452   -4.34819540262008    7.59244234775538
C           5.66914126312877   -4.51204532979054    6.98537514761410
C           6.20842653105433   -3.49033198426365    6.18937371695078
C           5.52437082083190   -2.31844678884602    6.01198747667422
H          -1.85859333160592   -0.94918573798241   -7.53590573700064
H           0.99373147910954    3.13908791468511   -7.33385548220413
H           2.09566421263668    2.46449663270708   -9.38812990130056
H           2.36920233131839    0.87390480068390  -11.24831134998925
H           0.97531072429444   -1.15327627872722  -11.36523719967719
H          -0.70464356115186   -1.60691263227999   -9.62193974537238
H          -3.84911733632324    1.92509886041309   -3.51754225988075
H          -3.60373674821486    8.17066438851186   -2.05310813500017
H          -4.59508271395792    6.18451776370646    0.06801906554896
H          -4.61265074455298   11.10004943530974    5.30289671926071
H          -5.91511115637386   11.18355046298381    4.08394984004705
H          -4.30548609357900   11.85114873169971    3.71152757692035
H          -3.57133589539730    6.27541878451536    1.92716379066123
H          -3.24848232187618    7.99638392516270    4.42581713832800
H          -3.29562915737637    4.46629378550431    3.02827726087222
H          -0.71574512398926    5.18131892277544    7.15696995170951
H          -1.72434664296924    7.09983696431930    6.01959141178800
H           0.05012489558795    2.79040737408456    7.00588768864660
H          -2.58711181171570    1.36968094370870    6.38993642029956
H          -1.90579877057176   -0.30141035277031    7.86356560625566
H           3.94218484453244   -0.12395650323390    5.83135230049961
H           2.06974212389857   -3.78544169452867    8.65497764129378
H           4.03523016039087   -5.13129476952891    8.20729628840582
H           6.22174187541764   -5.43056246326814    7.11473560842345
H           7.16808824999032   -3.63700986342336    5.71671427351297
H           5.93407673094476   -1.52855500619435    5.39962132866131
