105
 SCF done       -201.708037771543          0.000679926155
C          -3.02800797594103    0.82212812318185    1.80165011826540
C          -3.16769998198111   -0.23869552575159    0.94665433964686
C          -3.63293772576925   -1.51287211669120    1.33684102307731
N          -4.01354259500099   -2.56584672954227    1.58813142030979
C          -2.85562527046808   -0.20991503216132   -0.42906180242642
N          -2.60998531242661   -0.25468231523196   -1.54961401056162
C          -3.27417371225779    0.80619277891845    3.23606546570958
C          -2.89612370501993    2.06780648858157    3.78049831244035
C          -3.00676433354000    2.34104157130966    5.11408493181136
C          -3.51080379718798    1.34652046681125    5.98079734673005
C          -3.90499541761196    0.08647255426792    5.44244940602354
C          -3.77763689820697   -0.16823388427261    4.05818705472970
C          -4.42134755629724   -0.89303855380609    6.31530043509387
C          -4.53957570829726   -0.64355629270210    7.65555678512389
C          -4.14647314549532    0.59501995294327    8.18503264262341
C          -3.64239081674474    1.56860679931910    7.36578900033666
C          -2.41971750852159    2.95104862578774    2.70899905758875
O          -2.12843445746882    4.12075674456023    2.80210956049755
C          -2.52329440430239    2.13981379214647    1.45247376781802
C          -2.35810697131702    2.64397066349335    0.20375895684434
C          -1.71414632928860    3.88221704937831   -0.07384784426273
S          -2.22426569063268    4.87217133045591   -1.42350453029060
C          -1.02633818869984    6.10502854786003   -1.10019927060375
C          -0.25166071748526    5.70770878962712   -0.02732647754381
C          -0.63637282493833    4.47970688332597    0.53908740476169
C           0.36014113314412    4.13639302307583    1.56971483014733
O           0.46670336367462    3.16780359310325    2.25654595121152
O           1.27638756019375    5.16078934947761    1.57609561704107
C           1.00186371709486    6.12257862579814    0.61973584146184
O           1.74575675225658    7.02138696686439    0.38270759107508
C          -0.95779968776265    7.35995995695336   -1.76350654453335
N          -1.27704420292634    7.61728403989203   -3.07353517200541
C          -1.61438727640949    6.65212762932740   -4.09204767192823
C          -0.41868624375295    5.78537763415397   -4.47345550316627
C          -1.09516916511871    8.97896604136952   -3.38884981218835
O          -1.29906986983192    9.44342934387468   -4.49159726508037
C          -0.67000402271708    9.58075146603607   -2.14595440068558
C          -0.59043329042783    8.55880891942629   -1.16884271138885
C          -0.27312559516173    9.17637363381333    0.10758607740085
O          -0.19859188701028    8.73611416685863    1.22929502527433
N          -0.10118218664840   10.53988369171361   -0.21236489215510
C           0.22127904673620   11.50817478616773    0.80881473530296
C          -1.01877708299217   12.25083947869876    1.30002806091010
C          -0.35750351014510   10.79579127696376   -1.53493468253863
C          -0.31358453834239   12.08850749380114   -2.11242815991383
C          -0.65117268488745   12.32933451246078   -3.40743110790304
C          -0.63518690512065   13.63648757324097   -3.95225686928478
O          -0.24429861837188   14.68928457796801   -3.20249671416219
C          -0.33999028921773   15.81220782492552   -3.94315756730070
C          -0.80939393696493   15.48924054539058   -5.21916533030761
C          -0.99798836552658   14.08192092780690   -5.22635338389576
C          -1.46434870684625   13.30591560232278   -6.29788203020089
N          -1.85284973764350   12.69488521735838   -7.18558856608622
C          -1.04182056178286   16.38526784588271   -6.27208179222730
N          -1.22739988554696   17.12493554266768   -7.12729484419518
C           0.01877801608020   17.06780138018642   -3.39288718646590
C           0.49451232065174   17.18399847209908   -2.12533290834291
C           0.87085366910114   18.42252045558498   -1.55524992152107
C           1.38631235424391   18.55702627681722   -0.29906554371153
C           1.81791996420791   19.79051781748064    0.33802835626772
C           1.59596787557333   21.06553622519716   -0.11127751724421
C           2.02535262146307   22.22701660792491    0.56629652983502
N           2.34827594544863   23.20844518120577    1.06604611423446
C           0.88681316638430   21.40965109355980   -1.28179303502705
N           0.31603000868801   21.76825935409402   -2.21121332130515
C           2.49352087285234   19.43531429893805    1.58013006288844
C           2.40466697512556   18.02497523159409    1.76099661419148
C           1.68369320804196   17.42746948260348    0.62775735735308
O           1.40105627330579   16.25509134012378    0.48608579994145
C           2.94813365306592   17.40068179458431    2.84743363849701
C           3.62559082725295   18.17130725694170    3.81773029782954
C           3.72593551715977   19.58197376309508    3.64049223301279
C           3.14841706587837   20.20113348726853    2.50854678100857
C           4.41054733931297   20.34112517624079    4.61123777004569
C           4.96953668123135   19.73774923529681    5.70487037809314
C           4.86944590615991   18.34912838133997    5.87868284079122
C           4.21132640847538   17.58242835052596    4.95561003691827
H          -2.70839178443034    3.30393354586304    5.50076455903130
H          -4.08904905248446   -1.12937436988625    3.68067445225914
H          -4.72042066546311   -1.84579811183066    5.90378289286916
H          -4.93636230194561   -1.39995644822273    8.31582809712109
H          -4.24580056919335    0.77382636929177    9.24512384563749
H          -3.33833171266445    2.52403258039805    7.76722060263156
H          -2.74635558673911    2.11095813428731   -0.65504481300182
H          -1.93972945753299    7.23816895019538   -4.95630989390601
H          -2.44869977190145    6.03226392679368   -3.75057841103240
H           0.39251665918870    6.40863010896103   -4.84157357219662
H          -0.70640305859610    5.09037437559153   -5.25664996614831
H          -0.05851169343226    5.21633943679139   -3.61912907822279
H           0.96730629754697   12.20923671703337    0.42631550278120
H           0.65989015020133   10.94099621835690    1.63404988299322
H          -1.50986828331236   12.77550201492002    0.48335805399612
H          -0.73438423236254   12.97577459718196    2.05720976422472
H          -1.72480105196859   11.54854313525420    1.73626677939333
H          -0.01050986491884   12.91510707953990   -1.48524586874952
H          -0.96102020560047   11.52980265255583   -4.06708487315774
H          -0.10241873826967   17.92971927935311   -4.03461378813616
H           0.60091120745003   16.29659296554716   -1.51828353754850
H           0.75325499862424   19.29942651864556   -2.17874722439986
H           2.86584223999475   16.32999528993397    2.96236395632937
H           3.24579947603404   21.26972940149209    2.40227897513149
H           4.48435017489659   21.40980235978166    4.47356673007426
H           5.49252964272348   20.32760936968647    6.44243136855857
H           5.31690171682324   17.88995014834000    6.74729900540856
H           4.13162652060857   16.51292109211483    5.08395937837854
