126
 SCF done       -251.362474140751          0.000678663950
C           7.35443741700674    8.56003063571645    2.47684872655453
C           6.71677422306296    9.76188485087621    2.35217094110721
C           6.95527153571463   10.86355351370083    3.20259460447834
N           7.11872183090031   11.78349049746865    3.86770885204992
C           5.81528319763427   10.05767360345589    1.31009163915039
N           5.11518433626853   10.35101921408358    0.44820692723093
C           8.44191466305439    8.23839569940968    3.38526299934412
C           9.10261075543263    7.06131876236058    2.91785871762418
C          10.17665339081591    6.53381434286902    3.57728727521975
C          10.63892141805108    7.16243405259456    4.75453934301175
C           9.97221516863916    8.32831670229301    5.23489884426388
C           8.86768489123067    8.85715491297326    4.53049708455955
C          10.43580118959620    8.93552082880619    6.42002317030793
C          11.50636084005567    8.41975843208954    7.09837504925352
C          12.16347163092587    7.27440912244668    6.62338833578735
C          11.73982845172166    6.65985787759123    5.47629843527134
C           8.42240159833323    6.55901761317947    1.71724494448541
O           8.72124321461863    5.64006156661024    0.99345742414315
C           7.19444448218691    7.40893638067305    1.59961793457262
C           6.11969499234097    6.95435778749131    0.92992215175960
C           4.76714268749285    7.44223704085419    1.00138773050085
C           3.98713998158511    7.57269037258333    2.12533028281198
N           4.32742923741224    7.29834851466170    3.46787660620715
O           3.41327347774757    7.19448854835301    4.26064433163016
O           5.50818437603925    7.18316159637058    3.76281986987549
C           2.63235565630536    7.92608564051509    1.73916047313172
C           2.59396793327926    8.08106762478443    0.39921761774860
C           3.91003653244869    7.83793166798071   -0.14035230905604
C           4.34240239991230    8.02894538213525   -1.43023597998157
C           5.54771402002443    7.52787150842648   -2.01726971468720
C           5.46531413909794    7.66747301773387   -3.36855015108506
C           4.24037467085999    8.32353076265856   -3.70872936551208
N           3.95427295472028    8.57657452651953   -5.06446114205855
O           4.89420118645589    8.56307635167397   -5.83777199505126
O           2.79647124689841    8.76694105615088   -5.41193174760393
C           3.55622245927044    8.65897895060875   -2.52644808688374
C           2.56896908730162    9.61788864043733   -2.25300860999200
C           1.76480777446812   10.23697940716458   -3.18661374683660
C           0.85335166604933   11.28564815086234   -3.00040699102404
C           0.18382638883187   11.83454708553675   -1.89731342828970
N           0.23558937180047   11.49276480235162   -0.52766395072287
O          -0.24716330600466   12.28471552834515    0.25575343447855
O           0.73583708440454   10.42904752556863   -0.20519735572544
C          -0.75751845580521   12.80696050985345   -2.35085378490979
C          -0.73825134022182   12.85223688064230   -3.71593925892736
C           0.27242659643418   11.96611124455959   -4.18345771029146
C           0.75136711617606   11.88569569885504   -5.48259177785259
C           2.11097530424228   11.75408707419699   -5.87309621433019
C           2.22138382993504   12.03036482068523   -7.21238869199037
C           0.92481073249215   12.27495985312687   -7.74266004129475
N           0.68898743371695   12.52201918989763   -9.10972477984332
O          -0.46639965184933   12.63674434015791   -9.49437731077613
O           1.66067833286416   12.62307101864639   -9.83153488203319
C          -0.02219533533972   12.15738771393816   -6.71349772589037
C          -1.40796605945066   12.07850624137351   -6.87950154592584
C          -2.28012426787021   11.51027887968197   -5.97726063031142
C          -3.66146286724229   11.40768996377138   -6.17621829511448
C          -4.64039345286082   11.32375911397596   -5.17604257085494
N          -4.44711891698242   11.19206485467577   -3.78898154690373
O          -5.44187074222608   11.13859147589046   -3.09075994354676
O          -3.30365958328619   11.13117428359834   -3.35800870904926
C          -5.92624049616505   11.48716613176431   -5.76737805094513
C          -5.78163821793979   11.67267864894762   -7.11570203599200
C          -4.39774153596099   11.55805872122845   -7.44987632602279
C          -3.87076921222182   11.32899626992800   -8.70771193044160
C          -2.77572977309751   10.45162478075284   -8.98521288048554
C          -2.72108381183199   10.24326857548490  -10.32531361510142
C          -3.71915162423646   11.04948805727212  -10.97590873265455
N          -3.83246619079803   10.98222454530081  -12.38335609456236
O          -3.01111950379594   10.30162656304085  -12.96581846098597
O          -4.74167215619426   11.56893365512197  -12.94579756521910
C          -4.43724468100068   11.75927801303587  -10.01256696710798
C          -5.37741069895152   12.81441213237777  -10.06202791163229
C          -5.87188540296859   13.44597833307884  -11.16697552413365
C          -6.83496474641872   14.48571850667788  -11.14908932050019
C          -7.92506167808818   14.60117242023486  -10.33534053889843
C          -8.88839832666897   15.68997927524372  -10.35474717547584
C          -8.66569110939553   16.94877448267377  -10.84718905529653
C          -9.62499757580347   17.98334513460205  -10.82632958347609
N         -10.36870239340127   18.85713933930113  -10.83874953276897
C          -7.44019781755422   17.38661890236058  -11.39386656955181
N          -6.46308424892653   17.81145646711519  -11.82072091641788
C         -10.09446255506692   15.23336098721040   -9.67888049426075
C          -9.85589345993894   13.92573722543398   -9.16503351262689
C          -8.49194905476145   13.50166954283631   -9.50385545982915
O          -7.96304084934003   12.45221554773629   -9.20047977732984
C         -10.81074267755763   13.23763680127844   -8.47090083009126
C         -12.07207686790397   13.83594172306694   -8.25888330742158
C         -12.32154563612758   15.14052711988181   -8.77730357697047
C         -11.31303125048266   15.82952780382459   -9.48983001424351
C         -13.58650311579712   15.72451032979713   -8.56488446134031
C         -14.55906677287332   15.05481327853924   -7.87253467418052
C         -14.31200602807314   13.77184402533238   -7.36148681127324
C         -13.09464706629265   13.17523077227447   -7.54989697616004
H          10.66414675461120    5.64327663007749    3.20909198862790
H           8.36908327782213    9.72972768349699    4.92263692026955
H           9.92790084313623    9.81759143229748    6.78084320329764
H          11.85297958753983    8.89112697654040    8.00566958669492
H          13.00582100169943    6.88067671200331    7.17204352301008
H          12.24113224848506    5.77720393897461    5.10718482421936
H           6.27228305259926    6.05429527855243    0.34001867764469
H           1.82872577818870    8.03318168473559    2.44159331510008
H           1.72138466393316    8.32330031287650   -0.17059629738115
H           6.35426762073861    7.06057155560050   -1.49090820534224
H           6.18272928719779    7.34807034931300   -4.10169803510022
H           2.50091014708264    9.92520802721185   -1.22069091137772
H           1.82550880879254    9.88579384331321   -4.20816815932170
H          -1.38066359372425   13.37777015845087   -1.68860338901755
H          -1.30579183093602   13.51601580948301   -4.33879098948701
H           2.93194268815241   11.61709391481782   -5.19690305029677
H           3.12332014561446   12.06161527566503   -7.79460614196181
H          -1.79157581526885   12.44301661509816   -7.82399173367388
H          -1.90765467398437   11.15466377241627   -5.02592697179008
H          -6.84483909616771   11.46030303079546   -5.21180889677913
H          -6.58552809837454   11.73544020161664   -7.82374868174923
H          -2.19179351680614    9.94777818408931   -8.24012099610942
H          -2.05661502527409    9.59040404351203  -10.85913859773056
H          -5.67020202090605   13.20127969844734   -9.09640654274116
H          -5.48849692898760   13.18884406708183  -12.14552654672553
H          -6.72768740332906   15.21325638020666  -11.94678929252300
H         -10.60611523679665   12.24806471618404   -8.08980994784895
H         -11.53426477453940   16.81186996804798   -9.87603994654622
H         -13.77224208316895   16.71281716051650   -8.95868777080890
H         -15.52472930313725   15.51082005258352   -7.71498101212583
H         -15.09088063447851   13.25831452380404   -6.81835904136774
H         -12.89880826193330   12.18753063125659   -7.15921595001926
