92
 SCF done       -176.548842879542          0.000446835696
C          -3.48901179208226    5.02348816580817   -2.61654490498579
C          -3.60692826889972    3.66796965335317   -2.78675317950256
C          -4.82802450976004    2.99327223890450   -2.97699221583870
N          -5.80040625009797    2.40201232509725   -3.12282982389916
C          -2.46198959248274    2.86063777183915   -2.90163971044963
N          -1.50004857174482    2.24991672937266   -3.05362256219084
C          -4.53585256327687    6.01512530137234   -2.80843951674585
C          -3.92194176201932    7.28537585663750   -3.02637290353520
C          -4.66392344949121    8.40210285082947   -3.28349636284510
C          -6.07314367182647    8.29952937921008   -3.32069181336288
C          -6.69117287725384    7.03643638249986   -3.08574606358604
C          -5.89853831360107    5.89328578738182   -2.83263898844251
C          -8.09778065083124    6.95250682717303   -3.11822230637248
C          -8.85966849816003    8.06015576256480   -3.37414951254801
C          -8.25067165495099    9.30194515561894   -3.60853097722451
C          -6.88722587451938    9.41894996230610   -3.58255911439691
C          -2.46043725679480    7.14552425330519   -2.91722058296412
O          -1.60192273585077    7.97623419129650   -3.10866905039564
C          -2.24086386810468    5.73806465161856   -2.46815363095481
C          -1.04294447468816    5.38545928112846   -1.93334016167163
C          -0.71063188460121    4.27815506757106   -1.09777269241040
C           0.61668740920270    3.82600880577686   -0.94624070069734
N           1.04284867890180    3.04152444201956    0.07981257316033
C           0.22419371996874    2.50758025948326    0.91900239235744
C          -1.17074896302483    2.72542178962250    0.78172236603319
C          -1.63465134329144    3.64943750272220   -0.22515517063252
N          -2.94436665856104    3.74656427450261   -0.08536160131524
O          -3.26810026294589    2.93052504948228    0.92588969201927
N          -2.22265180318207    2.31581610179557    1.45678954826892
C           1.64442705291361    4.15402632193888   -1.87272469610509
S           3.30623642094728    4.05709187687494   -1.35863532893153
C           3.93845905788991    4.52528112333051   -2.91372563802741
C           2.88528298657895    4.69108544537929   -3.82362911963502
C           1.60648827967809    4.47585337664529   -3.22474085587204
N           0.66078170600985    4.57448755197671   -4.18879938062068
C           1.28923733131478    4.84832683537954   -5.38416862643478
C           0.56860326345448    5.00653252941701   -6.57644000445616
N          -0.01527989603237    5.13938021597346   -7.55489122391206
C           2.65303594359440    4.93851968205303   -5.19640554602667
C           5.33320189919275    4.66306505698587   -3.06899146274373
C           5.94764315090472    5.13911143606443   -4.18437687299574
C           7.35040656917581    5.26174455545497   -4.34237823697105
S           7.99344834548310    5.94648508286281   -5.80936337907520
C           9.63335622264306    5.72651076231064   -5.27945653943392
C           9.65243035423884    5.15687444596411   -4.00098143275757
C           8.37467349810650    4.90257964464446   -3.48570083849337
C          10.80562424187918    4.90600582441505   -3.23322922423779
N          11.69225751072438    4.70781574563271   -2.53388235456077
C          10.69322155617317    6.11000686091567   -6.13283930083718
C          12.00449150881277    5.78515626701549   -5.96933284968185
C          12.98161950404631    6.22633524017398   -6.89162528515126
C          14.28885719295801    5.83257097058364   -6.89261425433547
C          15.33783901753094    6.29148866259014   -7.78499161424417
C          15.22814054866352    7.24646478773014   -8.76365486767295
C          16.29308912543584    7.65548770511541   -9.59396258109478
N          17.11155041654650    8.03572446806447  -10.30368815056666
C          14.05771955019859    7.96246881928412   -9.08933105858468
N          13.15149200183757    8.58815374590152   -9.41645101982786
C          16.55758101483989    5.56556248065920   -7.44808898820847
C          16.28049239773907    4.68301080652333   -6.36534111998705
C          14.86410522121866    4.80449938403003   -5.98082220799635
O          14.28855752767310    4.16996589088694   -5.12398240553413
C          17.23718726663012    3.86762990005049   -5.83355212126159
C          18.54297508079307    3.89577252282761   -6.37184669865972
C          18.82922690353004    4.77379670010554   -7.45697508052500
C          17.81761662125525    5.60791516590089   -7.98537890754948
C          20.13425440910363    4.79057021503614   -7.99038771801399
C          21.11020686098171    3.97980497148446   -7.47818676692736
C          20.82716308567055    3.11611362381376   -6.40940692850615
C          19.57102687752272    3.07534413510470   -5.86767102949924
H          -4.18328071022806    9.35344825562080   -3.45708857912261
H          -6.38606162352977    4.94785502319187   -2.65142522430070
H          -8.56192534315601    5.99368112062719   -2.94024001727095
H          -9.93642005169938    7.98514273382417   -3.39814222124828
H          -8.86681987014869   10.16547386677711   -3.80943291409532
H          -6.41296152255044   10.37267244902753   -3.76225966190852
H          -0.24420726137393    6.10808255891428   -2.08094539440984
H           0.62977461146042    1.91615774698945    1.72586294618621
H          -0.32153194954530    4.38159742487945   -4.07719302007754
H           3.36691293422797    5.13909202805529   -5.96891009331436
H           5.92794101256440    4.37627327995707   -2.21337506305127
H           5.34820732389704    5.46336058649959   -5.02110676813809
H           8.21693558937018    4.46692896066746   -2.51563724090673
H          10.40293654483778    6.67982121535736   -7.00840223683806
H          12.32288280176744    5.16640759925990   -5.14388541634885
H          12.64542508078864    6.92559840257413   -7.64694444391343
H          16.99827676854310    3.20833948673754   -5.01233025917083
H          18.06792084294957    6.25904570722785   -8.80764355558340
H          20.34739462965193    5.45733163836503   -8.81304343280334
H          22.10640160863935    3.99935818023671   -7.89410408157194
H          21.60937881296921    2.48313358710262   -6.01780823259605
H          19.34676988679651    2.41242149071555   -5.04486639848212
