121
 SCF done       -232.102290935797          0.000465734166
C           7.85085771945669    7.66811267204073   -1.14508928726054
C           6.63979481599208    7.89587044498136   -0.55387088635968
C           6.34186756561529    7.54234600888083    0.78109846365865
N           6.04190992837397    7.27190576820506    1.85476505852260
C           5.51640180719134    8.43613480554754   -1.20770301571632
N           4.54817258451446    8.83364950016995   -1.68184763564652
C           8.97112326794093    6.94979615771995   -0.55805604617175
C           9.87709426777235    6.57352694682224   -1.59525023558322
C          11.01467710688780    5.86456318682865   -1.33312558302369
C          11.30720227350184    5.49960330082291   -0.00045581881729
C          10.41669646678590    5.88922547504920    1.04282465352500
C           9.24509721593564    6.61985233685478    0.74315115220902
C          10.72765762791899    5.52852354973404    2.37005985193923
C          11.85976280816059    4.81475571417286    2.65465092781506
C          12.73377488952758    4.42939607707087    1.62673628531603
C          12.46345531645294    4.76445614870232    0.32769519410165
C           9.39088390797861    7.09191524280625   -2.88016090187053
O           9.84041733037744    6.92679145734131   -3.98942985027369
C           8.20756539886855    7.93874136833376   -2.52967174268155
C           7.77683146510538    8.86684009808717   -3.40336654441612
C           6.87002877117895    9.96254002897285   -3.18459734613462
C           6.96893657434736   10.96991520102856   -2.24606739869926
N           7.95456740365903   11.14540533925168   -1.25689397265110
O           8.71014344269673   10.21589293534428   -1.00797576564465
O           7.99315069025380   12.22275447958938   -0.69261703460426
C           5.92915013166227   11.94997318689909   -2.47556188631133
C           5.15110003667821   11.51308118474694   -3.48645319159589
C           5.66384850478398   10.24657895828262   -3.96527830370409
C           5.08956889950338    9.41805593338094   -4.90313786656039
C           5.72697053594072    8.38452691991226   -5.66308983414972
C           4.95261193925865    8.08876243716121   -6.74090978783633
C           3.73277528068891    8.84252368499359   -6.66481551280509
N           2.68078170246512    8.66584564602772   -7.57053431495600
O           1.60953239227139    9.22394693671667   -7.35567512077487
O           2.88489366869479    7.95414353214110   -8.53987626566382
C           3.74590564045598    9.60831176835145   -5.50065694042750
C           2.62910350276960   10.27232542924279   -4.95771233746465
C           2.38705730896388   10.45485581680162   -3.62665424029423
C           1.21461945883299   11.06321707377694   -3.11800897487954
S           1.36076788696883   11.93661987679177   -1.62087023601039
C          -0.26656476097776   12.54488029862122   -1.75451490583238
C          -0.91397296506931   11.98767265245392   -2.86247750191872
C          -0.08813039848044   11.14831307058174   -3.61949801690004
C          -0.64747347606546   10.30381008216476   -4.72136452619429
C          -1.84560388607362   10.99296235452592   -5.37185261115120
C          -1.40143105657248   12.27556295099398   -6.06632450899888
O          -0.41628738745534   12.88251946997231   -5.73163362959420
C          -2.28310800180467   12.70779976881537   -7.20448043136770
C          -2.88114216708744   11.30093765143906   -4.28336978954373
C          -2.32845380843837   12.28455946100706   -3.25210243632912
C          -0.68415154270946   13.46930572593249   -0.76909904522066
C          -1.78779646474411   14.26805140994013   -0.82275291125059
C          -2.24127709203458   15.20045477221841    0.13469756765402
S          -3.45643603426126   16.30560220389483   -0.41268175428158
C          -3.51293583358516   17.14646261684320    1.10231588328724
C          -2.61225060498634   16.54767139943293    2.02825260159173
C          -1.90860753726687   15.42993996470756    1.48992278490823
C          -1.05736717378473   14.68430350763986    2.32070849055489
C          -0.86495680087714   15.07103813250813    3.62214614247634
C           0.03865791339368   14.27964501659554    4.52824851980828
F           0.59221353348189   13.22838098969230    3.90361273445447
F           1.05536704544088   15.01381150542456    5.00421428892858
F          -0.61506825411986   13.78403712127391    5.59116571456436
C          -1.52053712648306   16.21309439965485    4.14547655941535
C          -1.30609249553762   16.61058808266952    5.48842278810133
N          -1.14404053338283   16.94300558826025    6.57172565506231
C          -2.39378263481717   16.93506481117501    3.35632523964448
C          -4.31417853462338   18.24619939477143    1.41472619843002
C          -5.26086777487758   18.90053033424849    0.66100642868034
C          -6.05240946418833   20.03593196710235    1.09252651343259
C          -5.99745633671827   20.67614424472234    2.30568099160913
C          -6.80589934372061   21.77873144437562    2.65317115992689
N          -7.43274293623157   22.67617038841248    2.99896419993777
C          -5.14308514103863   20.33539808666886    3.37375115779251
N          -4.47561110243947   20.10743526919649    4.28116549386973
C          -6.94525206027735   20.39068660354928   -0.00746883518123
C          -6.70942977920737   19.49414982202252   -1.08981276334916
C          -5.65535758829382   18.54846747547910   -0.70573984482307
O          -5.20227723289468   17.64339968184158   -1.39077063196466
C          -7.40334075891238   19.57419239041521   -2.26244837792876
C          -8.38777925967306   20.57665366963422   -2.41141156038381
C          -8.62958326717338   21.47924676939000   -1.33600607753219
C          -7.89296044330134   21.37074758659482   -0.13286419505372
C          -9.61371871423905   22.47528518952398   -1.49481223167776
C         -10.32681299643599   22.57585506289265   -2.65896738503540
C         -10.08835128781793   21.68619565484297   -3.71659830509960
C          -9.13875658339524   20.70766183486095   -3.59562016958851
H          11.68594338581942    5.58870759324046   -2.13287514277547
H           8.59744996436263    6.91639107034888    1.55312666578673
H          10.05121422138287    5.82584750412141    3.15765187143034
H          12.08881481912137    4.54292182273874    3.67407832203789
H          13.62286259767073    3.86704688011124    1.86966780426979
H          13.13337984856060    4.47176019049757   -0.46746382380499
H           8.23526608797697    8.82578184296957   -4.38822703410754
H           5.84253732654925   12.85724140216024   -1.91011542875312
H           4.31737399684931   12.02989246270686   -3.91729391876646
H           6.69103572429256    7.96537946729667   -5.46167855684022
H           5.17122597240838    7.39574457392114   -7.53165694043602
H           1.88392068880613   10.57779038530233   -5.67661376798395
H           3.12645471645665   10.15075065245079   -2.89691787879655
H          -0.97949503158546    9.35813231429887   -4.27893323293155
H           0.08625591606074   10.05820922475212   -5.48264184206754
H          -2.29245867846358   10.32748795456051   -6.11504922230231
H          -2.02398408709836   12.10366572362135   -8.07356108363617
H          -2.10660824887884   13.75259925323055   -7.44686381923531
H          -3.33308259109748   12.54199183267199   -6.97880142312745
H          -3.14689014602868   10.36309193175986   -3.79133525510746
H          -3.79082607844808   11.71575926975446   -4.72071740508316
H          -2.96844540592617   12.27703323334494   -2.36669197946259
H          -2.35203721638410   13.29335467584789   -3.67834000218612
H          -0.00004918483179   13.56791366031616    0.06125141044938
H          -2.37798255791925   14.27310924496803   -1.72628999912278
H          -0.57347256172711   13.79476395106525    1.95544945407111
H          -2.89787742426615   17.78658128217151    3.78766859674313
H          -4.15986330801177   18.62718668265252    2.41394457286613
H          -7.20454035436829   18.88115238511988   -3.06647360740730
H          -8.10234088077623   22.07015530640336    0.66050228921695
H          -9.79426938136625   23.15823063383130   -0.67781875159663
H         -11.07899055851441   23.34220768673802   -2.77049154242635
H         -10.66022787096034   21.77946136540795   -4.62762444667158
H          -8.95038108714918   20.01961603226342   -4.40681725567442
