107
 SCF done       -202.024980959018          0.000599186353
C           7.44415079035615    4.74852904974974   -1.00715652172811
C           6.55547994246717    5.63137983570923   -0.45172743211226
C           6.40249095080786    5.82584249751596    0.93688549722788
N           6.23385198458796    6.02583839813712    2.05406534910152
C           5.64843741072841    6.39354782416887   -1.20560009006925
N           4.85704865387164    7.01080211737265   -1.76686827607466
C           8.26297136477543    3.78724985608938   -0.28755197809364
C           8.66565974928323    2.76097325293615   -1.19379368986352
C           9.44065348057852    1.71312588275159   -0.78760266193691
C           9.86227504566956    1.64989133634714    0.55984477538223
C           9.47605995935489    2.68168699556732    1.46488073438753
C           8.66647297865744    3.75118339417468    1.02001048580759
C           9.91748872824850    2.61197377941290    2.80198681501039
C          10.70045129409796    1.57379607047506    3.22791387424719
C          11.07778035397828    0.55756155726614    2.33729238316725
C          10.66680336190034    0.59436481721732    1.03235424778889
C           8.15103620812394    3.06743009312716   -2.53818386965014
O           8.21830946610017    2.40384312928532   -3.54594491297669
C           7.56319011142655    4.43617648033191   -2.41796940754443
C           7.38927470112404    5.18635805100846   -3.52986451879088
C           7.21041878898866    6.59779917402773   -3.65502008165392
C           7.77395256601304    7.63097820824871   -2.90379990806088
N           8.75578462684831    7.56735966488580   -1.90183763228334
O           9.09073980558227    8.61815612196168   -1.38085476859860
O           9.22864168542965    6.48139982864958   -1.59088387766919
C           7.30042911978334    8.89580458671815   -3.39333274257800
C           6.39915783543639    8.66307414293830   -4.37494028065918
C           6.30464003370203    7.23510369892677   -4.59617631602878
C           5.50029893691253    6.65339377212064   -5.56336674151363
C           5.73869504978092    5.49851672923133   -6.35262658002947
C           4.92580186752951    5.53858644870514   -7.45559789293676
C           4.03828216197970    6.64580568213413   -7.34772048863494
N           3.14971667909288    7.02158472124253   -8.34497201066926
O           2.33465553853419    7.91680526026929   -8.13108544211735
O           3.26314175721885    6.47880119057552   -9.43927983554494
C           4.30954850484947    7.31881366774153   -6.14555451593080
C           3.55097917397982    8.33769848399099   -5.58293070528952
C           3.62879846676766    8.82392767199766   -4.29604161130360
C           3.05282494300193   10.05074842056149   -3.89925183939158
C           2.79895576864941   10.37751113263116   -2.56846422994635
C           3.05205318225503    9.55164784620140   -1.36794759899826
S           2.03956286934079   11.90380445066424   -2.43299549441472
C           2.06313894001490   12.15637150100643   -4.16083814411192
C           1.55260886246371   13.43909070253971   -4.70823660034986
C           2.63588508359401   11.10072610675403   -4.80872213020977
C           2.89391576868504   11.03783149127524   -6.23174223120425
C           2.02312488154773   11.41947436677258   -7.18441937680860
C           2.25428638378308   11.28796678386012   -8.58562746211948
S           1.08423423170060   11.99576941768666   -9.67073876679985
C           1.94519526099014   11.48282558517121  -11.09219116175983
C           3.05241286773845   10.75313812422852  -10.71855704868224
C           3.23536042927396   10.63929553549961   -9.31809884699356
C           4.39446620813992    9.78580346109198   -9.04556806876147
O           4.94769582729153    9.57268970214616   -7.98953090860122
C           4.81628760827109    9.20109309929612  -10.38323346382768
C           4.03097530738592    9.94160776690718  -11.44817837842464
O           4.18458927258651    9.85114030318593  -12.64220650663627
C           1.45006137850848   11.73099420780087  -12.40880968368369
C           2.26334999620972   11.94907595313074  -13.46804941451716
C           1.91831075811440   11.93288051492078  -14.88128908276207
C           0.65894239717406   11.89388388554770  -15.41612977146615
C           0.38693399586244   11.87444872027704  -16.80094340815261
N           0.09747892618352   11.86366724756166  -17.91138167227746
C          -0.53628013720435   11.91011928460900  -14.66674891534245
N          -1.54313111148803   11.93163178824866  -14.11558985180397
C           3.16722664320961   11.95950917495556  -15.63117819244972
C           4.25072431891306   12.14609060150112  -14.72423071648677
C           3.72707997746173   12.26007536616542  -13.35639425112385
O           4.30287158229466   12.67316660660389  -12.37566309350760
C           5.54526885079271   12.21169097093605  -15.15160343319696
C           5.82347787310412   12.07807695867053  -16.52980141341415
C           4.74621074962161   11.88808410676671  -17.44372258822743
C           3.41520487099909   11.83234500806654  -16.97361083196429
C           5.03610043854088   11.75904594814255  -18.81793176756236
C           6.32628147589360   11.81401868037536  -19.26938238538471
C           7.38622703735262   11.99995389596303  -18.36868013688411
C           7.14017263087877   12.12870515566639  -17.02877558806518
H           9.73524487260186    0.94370397782001   -1.48581881071163
H           8.40169566257919    4.53063876041991    1.71742926407565
H           9.62331094204254    3.39597782177452    3.48397308362419
H          11.03417052969388    1.52992282767252    4.25379811302409
H          11.69710735259141   -0.25361042204495    2.68981278720373
H          10.95574338855806   -0.18473009831522    0.34216437324981
H           7.45879978341173    4.62916257363099   -4.45652199590322
H           7.65021724809355    9.83989887578129   -3.02345142875005
H           5.93061551710074    9.39707877294168   -4.99906814040925
H           6.52243057239193    4.78304462762329   -6.20524403075788
H           4.93551723151001    4.85777283271840   -8.28679550171310
H           2.79268932570771    8.75180555377189   -6.23919194450689
H           4.09538442465749    8.22333831619043   -3.52488607163303
H           2.38439573034366    8.68905090319436   -1.34962737195132
H           2.89185116943866   10.13120547109930   -0.46256372931320
H           4.06952374683285    9.16231238334403   -1.37115954945598
H           1.72944899195250   14.24853526733906   -4.00277755187922
H           0.47793505087731   13.38364343539360   -4.88714056525452
H           2.04598255940070   13.67062194159084   -5.65007955873097
H           3.85526268762834   10.63793564081930   -6.52463810789054
H           1.05222589907945   11.81073186048223   -6.91363005920080
H           4.54607388955421    8.13949044038312  -10.42721582665502
H           5.89440265269635    9.25955006619948  -10.53947005882100
H           0.37538859005291   11.69543275902008  -12.53100819024643
H           6.34842558705576   12.35369983056029  -14.44422635975192
H           2.62220719587149   11.68459320783726  -17.68965850796728
H           4.21688191573856   11.61617634793907  -19.50725738899141
H           6.53817711660833   11.71407347050750  -20.32337312387482
H           8.39843106326509   12.04046174211521  -18.74255602507816
H           7.95217381301611   12.27189745023310  -16.33096263118149
