97
 SCF done       -196.268637938044          0.000661555158
C           2.64491832663411    2.32828122054661    3.67141286356765
C           3.26065640045525    2.97982951491227    4.70640455445227
C           4.13714958114652    2.35269954269784    5.61822746339381
N           4.85368587193855    1.90125809947580    6.39271525558034
C           3.15967447307551    4.36036258244272    4.98357587502153
N           3.14574193241041    5.47495854452437    5.25934060662803
C           2.84457201941655    0.93022479134299    3.31635113174390
C           2.21817757917301    0.69204048487355    2.06067613793312
C           2.24669833838365   -0.53348153278777    1.45906760214234
C           2.90730004060702   -1.60130155580842    2.10559499897226
C           3.52671157575941   -1.37475624352280    3.36919334537950
C           3.48724177346152   -0.09262422851407    3.96312680804849
C           4.17537818320343   -2.45045558157866    4.00939651161895
C           4.21247018262917   -3.68984634506733    3.43067524719372
C           3.60373151393721   -3.91115750513559    2.18607138232632
C           2.96562958451764   -2.88903696567608    1.53722740315857
C           1.57734847334054    1.92684949155277    1.58228251956965
O           1.01558048165690    2.07052189018092    0.51745198451583
C           1.75516258573132    2.91924788364951    2.67769195428777
C           1.10824580977763    4.10483173211789    2.86168352713157
C           0.22050477024108    4.82066741642601    2.02108281921789
S          -0.60804895338060    6.19068158521184    2.73043407233817
C          -1.43379110223267    6.54510075736336    1.25640321923989
C          -1.05269837230997    5.63919192482280    0.25677420998847
C          -0.12805881573629    4.68067055839555    0.69222022748773
C          -1.51985298292303    5.65132904403203   -1.06955563444277
N          -1.87596194727087    5.62903865614111   -2.16038099420348
C          -2.35661095824675    7.62548714623534    1.21419898449868
C          -3.07849830013156    7.98738903208608    0.13127170023370
C          -4.02496330105296    9.06814501323973    0.14746325041974
C          -4.74259958663670    9.43803337482655   -1.03742738313501
C          -4.69306623496276    8.94975048207740   -2.31985351603318
S          -5.83118370701269    9.72068706562491   -3.33003286629557
C          -6.40587141315500   10.71343216769740   -2.07050441725661
C          -5.73001461437377   10.47533240496757   -0.89756931082463
C          -5.84170871549825   11.08111263818716    0.38620472894755
N          -5.09515705063302   10.68467023729376    1.38896134748298
N          -4.24929132923544    9.70412803075480    1.27767715555545
C          -6.77441854655864   12.18149525030229    0.61927871491741
C          -7.85318110528454   12.08420663335970    1.49735749587395
C          -8.33826566635992   10.90218361048847    2.24846833221247
O          -7.94764556706229    9.77876590601669    2.24813591354081
O          -9.43683644040457   11.31608695434991    2.96350572758066
C          -9.72844327658400   12.63514945338439    2.71831230942871
O         -10.63723953731059   13.19065591186819    3.25342874108762
C          -8.72681336908925   13.13852015083995    1.73889662795739
C          -8.62977862836447   14.40500328503164    1.11956734950459
C          -7.52805345341253   14.50518303758564    0.23774583302450
C          -6.66089536859327   13.43012128218318    0.01017767178305
C          -5.62834412857923   13.86356197802029   -0.95701164453279
O          -4.71413313200642   13.25750802139904   -1.42375300048473
O          -5.90487968855582   15.16563190009630   -1.27390296415230
C          -7.01347239470908   15.62066034964522   -0.60016294877186
O          -7.39321190920134   16.74243850678207   -0.74134055159293
C          -9.67395698187922   15.35378953073447    1.38117883961567
C          -9.81290355812467   16.61762448349690    0.92802615494664
C         -10.99096130455971   17.38803408267434    1.18939007789364
C         -12.26221595556880   16.91181429690189    1.16308712909579
C         -13.46550287575921   17.67707759452543    1.46278534421307
C         -13.51878401976459   18.82367834251228    2.20745614302701
C         -14.71278221038217   19.51439749426522    2.50661381492451
N         -15.64993636828569   20.12028298550907    2.77336997317130
C         -12.40053105060922   19.44692093331426    2.80303498186612
N         -11.53969174562753   19.99466377494321    3.32856389707953
C         -14.60446680687989   16.95507226691111    0.91650692570259
C         -14.13996740587010   15.72600377018822    0.36641437891953
C         -12.68387323724514   15.61523703488419    0.54038063269861
O         -11.98622268811418   14.69062359943745    0.18687986335326
C         -14.99102446639440   14.82837647551729   -0.21348118565081
C         -16.37032163637130   15.12497794946997   -0.27117687355018
C         -16.84195822131645   16.35701651984868    0.26928510269450
C         -15.93799638552591   17.26677072072433    0.86312322779364
C         -18.22058740319344   16.64437640724022    0.20103820050427
C         -19.09275386500014   15.75810529030426   -0.37015394273499
C         -18.62766476989570   14.54491670760333   -0.90005032467700
C         -17.29567288532971   14.23485093362600   -0.85135894906968
H           1.76743600361092   -0.68588420413721    0.50339365168833
H           3.96026088668814    0.04518294612244    4.92238230841824
H           4.64413471072298   -2.27497487372189    4.96649344984124
H           4.71150582826117   -4.50725980949027    3.92906018587487
H           3.64251124930839   -4.89558978499311    1.74439494992783
H           2.49491433328147   -3.05319140866064    0.57899393131704
H           1.25505020874149    4.58684712582830    3.82176940634552
H           0.26605210402290    3.90716014694479    0.05797835506522
H          -2.49088283208891    8.18707895579774    2.12886551176104
H          -2.97406095030775    7.45840611695070   -0.80224715614144
H          -4.06412394570505    8.18071364729817   -2.72137557520520
H          -7.18893903087802   11.42102432987581   -2.25498659826465
H         -10.44709168496634   14.96889307085670    2.03067333005339
H          -9.02677313508213   17.11798038820410    0.38248473593201
H         -10.83186292836365   18.44775258169108    1.35205988782550
H         -14.61446396183099   13.90155379981872   -0.62011979794039
H         -16.32347085111202   18.19381472106199    1.25709883159516
H         -18.57446332957144   17.57835920679657    0.61201636492859
H         -20.14685096848617   15.98666233087250   -0.41641822565831
H         -19.33016751016923   13.85761716653527   -1.34698038441248
H         -16.93160825440684   13.30244676480927   -1.25726894804212
