106
 SCF done       -203.178238814260          0.000760555115
C          -0.08995448210564    6.06694762787759  -11.69116142515052
C          -0.73737886403963    7.12563019559127  -11.10555841379161
C          -1.81429574534724    7.80430146575207  -11.72136164347174
N          -2.70468882419308    8.36277698688004  -12.17937820914017
C          -0.49014348234069    7.62232409898855   -9.81970414223790
N          -0.39872222909208    8.07908965194467   -8.76607098718785
C          -0.45603309062552    5.43615333402892  -12.94918032908574
C           0.09564159283855    4.11966503731258  -12.97977127417782
C          -0.09410061754902    3.28710508792179  -14.04459551598894
C          -0.84770506276961    3.74324712612490  -15.14941131125101
C          -1.38334882120064    5.06455755761597  -15.13389741277832
C          -1.17661463752512    5.90390607095140  -14.01587026048451
C          -2.11841322915632    5.51123402092276  -16.25113927716568
C          -2.31864873027813    4.69379952740443  -17.33008639590648
C          -1.79368118864862    3.39276490253953  -17.34260528972633
C          -1.07459522274972    2.92743792848833  -16.27508633129026
C           0.87842791055037    3.88923326729906  -11.75595828484481
O           1.42868446896078    2.87986305596714  -11.38449510804144
C           0.90825087408261    5.21631993049319  -11.07080816955873
C           1.87001226889320    5.48029204736120  -10.15909928200534
C           2.27678816751106    6.75278588188957   -9.65579604118342
C           2.39594729292226    7.97319135177291  -10.32400865703118
N           2.31065263984986    8.23946767841233  -11.69601780170430
O           1.99264878320959    7.33690783319105  -12.46354320335128
O           2.55747469748763    9.37620064133675  -12.06410077714602
C           2.75604607722091    8.99172570283247   -9.37965018005477
C           2.77126970396798    8.43807671815530   -8.13899074010781
C           2.51933625998259    7.03050743688532   -8.25199341925380
C           2.47191717315874    6.13665490281287   -7.18359638054923
C           2.87137891800711    4.78790748458333   -7.13032058640263
C           2.88244961609710    4.38458023265775   -5.81601963247067
C           2.42021867708274    5.43650003762214   -4.98187436617596
N           2.33485012980911    5.26488987583035   -3.59716317565618
O           2.48446904591474    4.13399737848184   -3.16254294423791
O           2.14076045896318    6.23911666220885   -2.87874833368735
C           2.08853091732377    6.53721789098252   -5.80137641893153
C           1.28437306144580    7.65875707408413   -5.63033946945003
C           0.79326472743736    8.19604704995561   -4.45271222532998
C          -0.05949237544075    9.28931040677375   -4.41098790478979
S          -0.42360800818557   10.03451371274236   -2.86270830192881
C          -1.38115339235966   11.31543988124431   -3.55505569063128
C          -1.45483096783512   11.15035085362335   -4.95116123511093
C          -0.72671600570506   10.01632410164300   -5.41682031837614
N          -0.88294971431558    9.92295058471388   -6.75317290817743
C          -1.68585165180603   10.95915318520509   -7.16247843128702
C          -2.03740520315801   11.13668640905112   -8.51052489477367
N          -2.33484375085073   11.30475696068387   -9.60466299857980
C          -2.05412972266470   11.74164085125950   -6.08298251231953
C          -1.90877868637988   12.28794342487726   -2.69221822637490
C          -2.60797368086991   13.39752065973811   -3.07095021961944
C          -3.09411729986909   14.37007889335958   -2.16864068495719
S          -3.89532855373501   15.80017736095882   -2.76543748206979
C          -4.11446106707951   16.43441928541887   -1.16784357019145
C          -3.59479633180217   15.54150777749206   -0.21893517979106
C          -3.02716536125823   14.39588299449012   -0.78446150341643
C          -3.63396199119278   15.71615397249467    1.17681530154448
N          -3.64135531766820   15.79390231295894    2.32116213375440
C          -4.74601200478696   17.69110038523501   -1.00266180775159
C          -4.83745322752281   18.36522572662880    0.17332094188362
C          -5.45427366563440   19.63032454315160    0.36284233829630
C          -6.50555399308386   20.18250271103950   -0.30816637851741
C          -7.04095962497485   21.50970959326861   -0.04393582034894
C          -6.35343212896048   22.55513032366655    0.51247230190207
C          -6.90574217079737   23.83620344053004    0.72331753260052
N          -7.30611533332244   24.89292735516517    0.92365646415747
C          -4.99538677627769   22.50741922445641    0.89466945388699
N          -3.88862305396929   22.54524674443283    1.19763407981850
C          -8.39737386953641   21.55801177887040   -0.56839852952163
C          -8.65779203608511   20.33675281712421   -1.25366070077327
C          -7.47329040108732   19.46489672217481   -1.18744523551216
O          -7.34892314157770   18.37837400864693   -1.71015475817409
C          -9.85683899367830   20.09347316220303   -1.86043947084101
C         -10.86937879264249   21.07694506082536   -1.80361695339859
C         -10.61903805338996   22.29760374806267   -1.11139945063824
C          -9.36674465378102   22.52306886998566   -0.49578638655195
C         -11.63988064457712   23.26808801419119   -1.05483044678823
C         -12.85002155002310   23.04652017603140   -1.65405297442303
C         -13.09491708444842   21.84560622789012   -2.33676433733874
C         -12.12562967179007   20.88218145283917   -2.41076617310484
H           0.33072245291533    2.29424095734366  -14.04842747662820
H          -1.57310529311025    6.90682777333371  -14.03782730070645
H          -2.52219564385404    6.51269804003445  -16.23624376801392
H          -2.88247756082917    5.04533720735632  -18.18104288896149
H          -1.96000471511526    2.76168884771405  -18.20277491736383
H          -0.66659900701971    1.92726741261266  -16.27985611241254
H           2.41082184351334    4.61253715662657   -9.80107292598509
H           2.96895925043464   10.00648500630197   -9.65496771004260
H           3.04411210261204    8.93328362031020   -7.22670293558227
H           3.23047011139746    4.20105018709088   -7.95215464520803
H           3.19828493127196    3.42916149595327   -5.43938919018136
H           1.01793862636003    8.16151915043704   -6.54856938531244
H           1.11726552794800    7.78274909266096   -3.50702909296348
H          -0.57125080718025    9.18804182159014   -7.39574549418093
H          -2.68058757938331   12.60838118729021   -6.13387010291914
H          -1.70883703181529   12.12791712313454   -1.64187659512396
H          -2.79519974468293   13.57786931765507   -4.11831883428222
H          -2.58806152017483   13.61458415937491   -0.19071409100217
H          -5.13970446658965   18.13347271583239   -1.90545215254846
H          -4.34300426757727   17.96209702303074    1.04711966979648
H          -5.05806717632060   20.19298302769867    1.20108416940150
H         -10.03053316408243   19.16161762540581   -2.37787191434708
H          -9.20811711403834   23.45286753564741    0.02725878082758
H         -11.44578763362075   24.19176874727759   -0.52983974591965
H         -13.62548983445336   23.79603949259652   -1.60540309971762
H         -14.05560564191732   21.68743640164232   -2.80330930626266
H         -12.30885592768176   19.95562140813891   -2.93477857823995
