122
 SCF done       -226.637205797999          0.001237837812
C          -0.00802630372902    0.48330602955047   -1.21385370947685
C           0.70211657928815   -0.62357815300736   -1.58479534435042
C           1.24098413552414   -1.55991444401915   -0.67686023861214
N           1.69560896460180   -2.34701500989212    0.02267283099668
C           1.02692882719066   -0.92157356969920   -2.92603140699748
N           1.34935049556361   -1.17027765301801   -3.99875821798724
C          -0.27401322125684    0.93819517834096    0.14286743352056
C          -0.87903706287711    2.23009100699536    0.08845809631400
C          -1.23319284670187    2.90550198198797    1.22239607460495
C          -0.99956821074161    2.31007561874455    2.48152730358411
C          -0.40115477946849    1.01740054322551    2.54312942326829
C          -0.04202282929407    0.34221162374517    1.35463026054488
C          -0.17952348910296    0.43114302790918    3.80586706007300
C          -0.53131882642815    1.08807776829666    4.95373022146193
C          -1.12021071658504    2.36010323843146    4.89215718891244
C          -1.34879857688060    2.95853981162416    3.68269296297916
C          -1.05699671610531    2.62969363437221   -1.31238947668007
O          -1.54366945384697    3.65178851784087   -1.74866024672894
C          -0.56700591455758    1.47629965599808   -2.11691047584627
C          -0.81366525328163    1.38480359487868   -3.44111898104551
C          -1.39477581552715    2.46830606226580   -4.18883989921711
C          -2.64717052732800    2.46055884525670   -4.75321621342498
N          -3.53271328480094    1.37114073628790   -4.68734077921840
O          -4.59115226459218    1.45536232629061   -5.27792879965733
O          -3.17196138042421    0.40072676887127   -4.03590912837763
C          -2.93403120010917    3.75505316062290   -5.32679902509768
C          -1.87863093002305    4.56545702078202   -5.07922311415738
C          -0.85746225893540    3.81824007001414   -4.38423423162404
C           0.41975480454001    4.21413681468946   -4.06854517321823
C           1.55188344685001    3.35943966848631   -3.84430035756070
C           2.66327057541393    4.12851757736731   -3.74245278697703
C           2.28393490727510    5.51719297780530   -3.85150282438991
N           3.19718661004865    6.55058002085373   -3.56744163192706
O           4.35881172023661    6.23067196930308   -3.38935042818260
O           2.78357062172711    7.69574903863833   -3.47267367838965
C           0.91351906022740    5.60183978569420   -4.04709598131376
C           0.06981218031690    6.74437473910395   -4.09526291976805
C           0.37135306011566    7.89523256933230   -4.74995060496366
C          -0.39565444846960    9.08499491658399   -4.81279953780821
N          -1.30458429188552    9.57646518910195   -3.90825836998523
C          -1.54496190407529    9.11209683612088   -2.55953057604397
C          -0.29370658834130    9.22083093282806   -1.69344926622003
C          -1.84749262899401   10.81196840505262   -4.33262119117988
O          -2.64494772153266   11.45503628208816   -3.68664994684155
C          -1.23043598000021   11.04985533990479   -5.62047450215380
C          -0.33869364057005    9.99075305359817   -5.87548154420742
C           0.26800580145651   10.22281019802299   -7.16789999211661
O           1.08985584760519    9.60993262884550   -7.80857955555522
N          -0.31744260201994   11.43745247091104   -7.61361564578472
C           0.11298172750105   12.00539495563480   -8.86909256488129
C          -0.69607017620002   11.46040305726504  -10.04455734970893
C          -1.21799417817071   11.92951738267438   -6.70641635635044
C          -2.01730797835326   13.10640975559618   -6.76538732718768
C          -2.34518918414477   13.84573368697562   -7.84743769034425
C          -3.16210311911785   15.03471747441007   -7.83060486230647
C          -3.62609669388810   15.54373002300059   -9.04500879474071
C          -4.40005214715917   16.68940630627513   -9.09455958577541
N          -4.77575608732052   17.16777190131096  -10.40228392708368
O          -4.75130269955089   16.36764529210565  -11.31272408144137
O          -5.07503168052831   18.33695342930628  -10.52036191490123
C          -4.74710254390594   17.39433357908576   -7.92721253803118
C          -4.26016171699755   16.88074421513089   -6.71569540087531
C          -3.49612829141648   15.73896315972333   -6.66261005870403
C          -5.59600153188048   18.56323011903590   -7.93808562881339
C          -5.43962634453880   19.60688201963892   -7.09529899873196
C          -6.30066852981120   20.73791590695073   -7.14703689465379
C          -6.14365260344789   21.86315415901440   -6.39888267065958
C          -6.97784681822346   23.05550236597429   -6.43546496445968
C          -8.20604028210490   23.17445275221080   -7.02840327027835
C          -8.97700403652755   24.35686187822832   -7.01742563984629
N          -9.65165025240033   25.28472524007056   -7.04506719901285
C          -8.89664961917232   22.13661173180909   -7.69086585583961
N          -9.52980572499657   21.33950698969985   -8.22148297139007
C          -6.29848664211352   24.09415507464247   -5.67114818304782
C          -5.12438627093419   23.53766317975796   -5.08656487618724
C          -5.00459393809111   22.12271161041189   -5.47215271861162
O          -4.15086435161372   21.34071627835360   -5.11054243999533
C          -4.28484146080051   24.28091720310632   -4.30669124667037
C          -4.58313966604029   25.64190447621769   -4.07532446458152
C          -5.75429112352623   26.20720811197875   -4.65876946854100
C          -6.60642563077530   25.41264397904020   -5.45902497939175
C          -6.04157351685540   27.56726880257881   -4.42271006580456
C          -5.21222170650005   28.33389835418379   -3.65014166328121
C          -4.05840362845640   27.77692901305558   -3.07805010424800
C          -3.75101745327449   26.45954250927251   -3.28522277662772
H          -1.69072125005758    3.88171463706697    1.15923442381909
H           0.40131595820971   -0.63825386980381    1.43039568579077
H           0.27453230546585   -0.54779672172867    3.84844857275856
H          -0.35803381635030    0.63061019821757    5.91606990921785
H          -1.39260299754528    2.86307468844447    5.80776795767888
H          -1.80265003709324    3.93723994121093    3.62945047645786
H          -0.65876100811942    0.45383900286178   -3.97395018296644
H          -3.84552178264709    3.98634222843662   -5.84382588087490
H          -1.75555787276102    5.57140199707220   -5.43029636135728
H           1.51627896719562    2.28721473169664   -3.84842071658180
H           3.67656353632583    3.80634183532214   -3.59439284709415
H          -0.88873988397474    6.62253294491508   -3.61089960140243
H           1.24836025746494    7.92419113379981   -5.38315007565242
H          -1.92593798604620    8.08866863608224   -2.57131728131039
H          -2.33048438434477    9.76375398274710   -2.16463474126001
H           0.53049956713561    8.65155710881439   -2.11635688230563
H          -0.50619613254522    8.84372945184772   -0.69717829949508
H           0.01490188313959   10.26024171265839   -1.61247801928010
H           1.15901268694910   11.71052945617533   -8.99769391613049
H           0.05955477752813   13.09405211021956   -8.80751150349539
H          -0.52862496064406   10.39034790958762  -10.13567563879021
H          -0.37711722331754   11.94046809722803  -10.96553106169707
H          -1.76232103406018   11.62884644226613   -9.90793231662344
H          -2.43682304498558   13.35973110457412   -5.80044389250007
H          -2.03090930614390   13.53813042275580   -8.83264424583903
H          -3.38276440405202   15.05247009731049   -9.97644659790832
H          -4.51881703702504   17.39154774385355   -5.80148982056357
H          -3.14191823029677   15.38867918613787   -5.70612469557198
H          -6.38182947720635   18.60586003557985   -8.68134996739112
H          -4.62235672894445   19.63256888498803   -6.38949218530082
H          -7.11328937353650   20.68722815716696   -7.86063169932075
H          -3.40105770581971   23.83530899134246   -3.87457909315543
H          -7.48130313222705   25.87169205805131   -5.89127760377851
H          -6.93116369020380   27.99142429493689   -4.86471408117702
H          -5.44060261540551   29.37456575799120   -3.47555304495850
H          -3.41440460664074   28.39714361314480   -2.47261064365313
H          -2.86435028930495   26.02525720650712   -2.84692764563723
