99
 SCF done       -190.176514377695          0.000491302082
C           1.29704200138557   10.08832826375837    0.55281424941820
C           0.82607102448848   10.70173981422608    1.68314552899340
C           1.48177925008242   11.77194923250433    2.32868497158944
N           1.96992248445378   12.63854023034276    2.90141310152336
C          -0.39552104961075   10.40232386765035    2.32449799527928
N          -1.39119915238440   10.24421710656359    2.87386573151031
C           2.47753676974092   10.48840938048998   -0.20362030447123
C           2.52341557459536    9.72897679505369   -1.40895865142016
C           3.50989691179221    9.90367390121963   -2.33683552366176
C           4.51910699227448   10.86189664680426   -2.09520231237669
C           4.48643925395683   11.61944150261743   -0.88831206032204
C           3.45064883009048   11.41774639356137    0.05278453552130
C           5.50024224249943   12.57107636205030   -0.65686254800286
C           6.49777234716667   12.76789847067684   -1.57290285898026
C           6.52844287002277   12.02224067210170   -2.76081642471101
C           5.56018447562204   11.08929623858590   -3.01653255829266
C           1.38690234761859    8.79911106350309   -1.44141210884482
O           1.10827589424833    8.01783747161683   -2.33102124417090
C           0.66891560404279    8.99026686507485   -0.16487811518828
C          -0.34320689817758    8.20533759221498    0.30568254514323
C          -1.04542520306777    7.15895861585572   -0.32503655229192
S          -0.88705068899679    6.60340661314512   -1.99100232770069
C          -2.17929717154765    5.47700999169142   -1.80227240243500
C          -2.69939737636873    5.49699311034815   -0.54745323135902
C          -2.05706455808220    6.44373972032014    0.30333243502309
C          -2.65676919477519    6.40149955502299    1.60208393795834
C          -3.66258083565993    5.47232977521412    1.58687230278562
C          -3.77002370102173    4.84594331431590    0.22713645681257
O          -4.58145036525113    4.01200337440634   -0.09604168121870
C          -4.55329526187012    5.09394677461083    2.61719401509791
S          -5.88418904418214    4.01343125771056    2.26677389321685
C          -4.58498597178782    5.47037897900760    3.94517517072680
C          -3.78288502558092    6.28429741148170    4.87386822819294
O          -2.76028651188193    6.89791163191377    4.69092578623212
N          -4.44572891383685    6.18836637128020    6.09182771976906
C          -4.00373700055148    6.88298711868367    7.28294791217261
C          -4.51770724765422    8.31791884541851    7.30822592282750
C          -5.58798660296397    5.39549992183460    6.05305851739905
O          -6.31177376618780    5.17169231448637    6.99072489298076
C          -5.66438324053664    4.92257567187952    4.66094518566789
C          -6.48991883367946    4.10940886943324    3.91228040760293
C          -7.66578734839115    3.46466740345593    4.36476344969176
C          -8.45019610677291    2.66505803662874    3.60305596507264
C          -9.65244695471240    2.08519998523253    4.08466259801084
O         -10.10185711455135    2.33416367630142    5.32879082763988
C         -11.27750833792146    1.68991046107791    5.50999619783847
C         -11.60272947053836    0.98614371647986    4.34771428521153
C         -10.55084928794356    1.24296824528070    3.42665038554785
C         -10.43009667858332    0.75425738324608    2.11868326970310
N         -10.32422757427876    0.35973660704912    1.04781406897995
C         -12.71192862442213    0.16560134954589    4.09545360461393
N         -13.59222063634139   -0.52319704662289    3.84232541874234
C         -11.93238353116757    1.84379956409549    6.75700919858821
C         -13.15400446220555    1.34545131821648    7.07760962661250
C         -13.71560502253836    1.58609891600597    8.35644243528730
C         -14.95703176797613    1.18900317062309    8.75569854146852
C         -15.56750643693064    1.41081359749028   10.05608189291224
C         -15.01725007972519    2.07468312642779   11.12192053279633
C         -15.66627210519531    2.25838134555155   12.36175711703227
N         -16.13254498069145    2.44721036895779   13.39372783824873
C         -13.74084053949829    2.67457950250039   11.15286194511110
N         -12.72007430336044    3.18948084521063   11.26296538301141
C         -16.89228310465888    0.80159875847675   10.03473775798187
C         -17.11074319947451    0.22303233075853    8.75179026136463
C         -15.92857348283726    0.44474977876945    7.90294385108653
O         -15.78644676102554    0.10054396413616    6.75087326872900
C         -18.27315311400188   -0.41968890840022    8.43648421202489
C         -19.29255975542858   -0.51612425382808    9.40955120845964
C         -19.08295161903727    0.05949086800760   10.69628544347288
C         -17.86854530162644    0.71863089981914   10.99329070749501
C         -20.10698318489136   -0.04126669954576   11.66030032955358
C         -21.28179347373934   -0.67922172241222   11.36904193211444
C         -21.48691867993404   -1.24571140634198   10.10189914235056
C         -20.51360612055432   -1.16608362022363    9.14306433834789
H           3.51879356391584    9.31828360348778   -3.24423492505244
H           3.45665160108008   12.00423662681616    0.95773637971076
H           5.47187897721652   13.14393215864982    0.25830232740195
H           7.26896981410913   13.50014777576154   -1.38697347641052
H           7.32287240592975   12.19057422395255   -3.47222481643664
H           5.57835802969565   10.51215201269947   -3.92933953051127
H          -0.68660156427857    8.38947536603378    1.31718549506085
H          -2.47384957527371    4.86009305565931   -2.62955925812478
H          -2.37188202347516    6.99543454155580    2.45298300653200
H          -2.91104556326452    6.87292240359904    7.28513235234606
H          -4.38315105843236    6.32372517737392    8.14119097802433
H          -4.14250379612826    8.86560119143096    6.44694506766157
H          -4.17710638486078    8.81350760494803    8.21274352447954
H          -5.60514240865448    8.32923779765837    7.29122827257444
H          -7.93142285384345    3.65931250240763    5.39641070955819
H          -8.19214296943431    2.44421346517525    2.57644522676921
H         -11.38435398708796    2.43557195792612    7.48041984344541
H         -13.72556559836970    0.76989899868926    6.36417074849116
H         -13.09326598223017    2.13443772988009    9.05233166314190
H         -18.41118755883572   -0.84878332685565    7.45521603294506
H         -17.74288359327550    1.14268403153671   11.97665695281609
H         -19.94437936477587    0.39673775402750   12.63416154502758
H         -22.06024719069549   -0.75071984726968   12.11376446849944
H         -22.42018964438887   -1.74540849883641    9.88953491665478
H         -20.66559537436730   -1.60031697741932    8.16585492138948
