107
 SCF done       -200.131444037639          0.000879228477
C           0.64703875049913    0.52109777184596   -0.43774517365435
C          -0.05655072231416    0.80682272354600   -1.57761324326118
C          -0.64201375724155   -0.17393093586000   -2.40589456020851
N          -1.13829672152427   -0.92860775698930   -3.11323398786624
C          -0.21519690978574    2.10618502393601   -2.09466694128066
N          -0.35606710391935    3.15377728920122   -2.54314394213905
C           1.01161907754034   -0.81745250061136    0.01176366079733
C           2.10624862331405   -0.71247617785279    0.91970610676816
C           2.68089192383852   -1.81692733726933    1.48098351798436
C           2.17153048167676   -3.09574460907055    1.16220917850486
C           1.06604009406775   -3.20556827459773    0.26910699845740
C           0.49456151235826   -2.04536628564736   -0.30193999599840
C           0.56198145032989   -4.48672213597312   -0.03350278566700
C           1.12312954426498   -5.60734120887999    0.51584778640767
C           2.21201803530727   -5.49860060834847    1.39379694443333
C           2.72522509563588   -4.26989569906181    1.70985188162658
C           2.43830108147027    0.70650760604376    1.11990926449465
O           3.33936226187484    1.18645645914237    1.76512627850332
C           1.36938902577275    1.46452741193976    0.39187684740334
C           1.20336665718472    2.78134269204971    0.67494090866609
C           0.08994822713880    3.62638324348714    0.42399760100550
C          -1.24888019327147    3.29956078477967    0.27994033173504
F          -1.71956613508083    2.05091738818315    0.37795307578908
C          -2.08443955274862    4.39931139165458    0.08707010970280
F          -3.40786359820252    4.24703168206309   -0.00200750319710
C          -1.41324255252978    5.61609497905434    0.06582629445597
S           0.28187516107817    5.34732559955778    0.37369002960305
C          -1.84267677044957    6.96284363780863   -0.11264355924178
N          -3.01128233652906    7.43828074823954   -0.64354940783497
C          -4.09298934047616    6.73160229235955   -1.29368156726458
C          -5.29251933701699    6.56429249427403   -0.36601245519188
C          -3.06615223365758    8.85169701996204   -0.59611628346731
O          -4.00265622360383    9.49087809970618   -1.02422915148207
C          -1.81760226730088    9.24747998207475    0.01300273330790
C          -1.08070168350514    8.07129280445912    0.26612145544534
C           0.18355169412468    8.44742406436916    0.85462866156212
O           1.13976351362284    7.78264695592907    1.20283711563473
N           0.12516367640260    9.84575106848900    0.93412084271365
C           1.21061981181157   10.60614165387746    1.50648356194300
C           0.92312269540618   11.00846879974032    2.95076065325451
C          -1.06117911788209   10.34490435330672    0.44127834291092
C          -1.39263064422809   11.71527908264090    0.41296927652696
C          -2.59724443382361   12.16458740219424   -0.04697307193368
C          -3.00686368694032   13.51542837745853   -0.06456834778021
C          -4.25200235673672   13.96091944744499   -0.46878147222217
C          -4.32172456126055   15.37213129416835   -0.31940842311649
C          -3.00242807397536   15.79063502551274    0.19745739325380
C          -2.23448424570251   14.68167678652267    0.34822789912371
C          -2.58233661306733   17.09458163784867    0.48484746146012
N          -2.19417132612502   18.14782748266889    0.72870978279587
C          -5.39739264439528   16.19239562818660   -0.57687343997119
C          -5.46822743671172   17.61102006870474   -0.41720713131654
C          -6.70864841475623   18.04958142852857   -0.82255532317052
C          -7.49507740607425   16.88164955701145   -1.20187781203705
C          -6.72102537384638   15.77346895817245   -1.05999594966180
C          -7.15775675430943   14.46551708322539   -1.30265075340810
N          -7.55628853631123   13.40643127265912   -1.49744046944553
C          -7.15115735061428   19.40147503578866   -0.81953173113959
C          -8.05197585623598   19.94144767400793   -1.68580848616966
C          -8.64875313228233   21.26408871245258   -1.62867989478116
C          -8.60237906247239   22.12840437391901   -0.56643310510804
C          -9.22412176613431   23.39480717564983   -0.55046264499725
N          -9.70362333936458   24.43530481895187   -0.47951036501292
C          -7.95902896508002   21.86508687505513    0.66150644058268
N          -7.47868621296271   21.70920032086396    1.69256396278121
C          -9.38222045802635   21.47525625857777   -2.87043732873319
C          -9.27223514463389   20.30213742622125   -3.67152754072055
C          -8.44162780860259   19.30682345615298   -2.97702258495170
O          -8.08153386813503   18.23080839916303   -3.40301440403412
C          -9.86948460902136   20.20361688395286   -4.89539896106786
C         -10.62456024781701   21.29356405127838   -5.38223894874417
C         -10.73698601599497   22.47262212409527   -4.58948717563068
C         -10.10247093428804   22.54720471097861   -3.32841614125370
C         -11.49155511142696   23.55488109118411   -5.08633362531686
C         -12.10716685996647   23.47735820818154   -6.30599081836121
C         -11.99578790053560   22.31606144149755   -7.08533200099385
C         -11.27032488002862   21.24719033672029   -6.63333336936912
H           3.51335907633129   -1.71657750240235    2.16141387067830
H          -0.34962796369986   -2.15524796947690   -0.96442752661764
H          -0.27439579753622   -4.56536224673490   -0.71228973176421
H           0.73113133034912   -6.58435863547963    0.27629407639007
H           2.64174293515334   -6.39322143449211    1.81884378155519
H           3.56316123132799   -4.18026477786101    2.38552883034192
H           2.02031466518231    3.24219311936255    1.22222129678527
H          -3.73180299003046    5.77428659886254   -1.66534872904557
H          -4.39321517823225    7.34808139561662   -2.14681402635142
H          -5.02175648451332    6.01228656734613    0.52952033608258
H          -6.07702445475180    6.02131828905799   -0.88404713394369
H          -5.67268615110405    7.54141719497744   -0.07971503250518
H           1.40731907100555   11.48517694842606    0.88662626112553
H           2.08638966064656    9.95201383732295    1.47613686863045
H           0.02632724837455   11.62067564454169    3.01696373204474
H           1.76221657189602   11.57182512128961    3.34921419844439
H           0.78046564641296   10.12039538202792    3.56126577881445
H          -0.66039214110786   12.41670654369459    0.78515512613794
H          -3.31894336932891   11.44782766009693   -0.41662937517065
H          -5.04701249844221   13.33793382710283   -0.82902425077654
H          -1.22196263402027   14.66691492574600    0.70654563098097
H          -4.66018048168360   18.23325689538784   -0.08403858356278
H          -8.52885908763017   16.89543134359250   -1.48650027028631
H          -6.69212933344370   20.03798807885519   -0.07249061313516
H          -9.76974939205323   19.30280733107077   -5.48268602655875
H         -10.20098625370602   23.45586602930819   -2.75600997837762
H         -11.57524241968443   24.44653874210944   -4.48254575250777
H         -12.68393770319803   24.31112832479818   -6.67717378178048
H         -12.48762886815246   22.27255672913579   -8.04548506059686
H         -11.18078403952015   20.35036363866974   -7.22866443623957
