114
 SCF done       -219.184229327068          0.000336869417
C           2.47404687956794    2.15701252201763   -2.67677169520896
C           2.66350418989247    2.85266808810707   -3.84137270940405
C           3.28890021783931    2.31312430465985   -4.98594708454514
N           3.78279413350793    1.93088939598122   -5.94882748554573
C           2.32270500789335    4.20629302140931   -4.05194705385046
N           2.10057512211233    5.30787353653212   -4.28784280900193
C           2.94799658904311    0.80585852842848   -2.41295646270094
C           2.75957276749863    0.52556300120538   -1.02998812239982
C           3.12641287283133   -0.66867743898855   -0.47865665422648
C           3.70353352724576   -1.65894653919782   -1.30420143088042
C           3.88623746181275   -1.38998397773077   -2.69193805101593
C           3.50036549497786   -0.14246330183974   -3.23303930981565
C           4.45824161679072   -2.38758513598055   -3.50745656561560
C           4.83392114247396   -3.59272929167885   -2.97936150627217
C           4.65439858686785   -3.85618602873687   -1.61304437637132
C           4.10160691907206   -2.90995276474309   -0.79317366338876
C           2.13753940064224    1.68336369802677   -0.36822384127940
O           1.89136686666817    1.78247037389880    0.81499568569030
C           1.86178100154974    2.66260772231245   -1.45443590476967
C           1.05343274424374    3.76033681967542   -1.41889368179714
C           0.41134512473659    4.40912210117115   -0.33716976725821
S          -0.74284200929020    5.65918940086810   -0.75882641645441
C          -1.05248132631909    6.01384730293486    0.90313430394703
C          -0.27197319119906    5.19411504886090    1.73319482009863
C           0.54210318943651    4.29796305675181    1.03509698998582
C          -0.32538006423216    5.29530600508839    3.13482296260467
N          -0.38935212062956    5.40562271275425    4.27450950484670
C          -1.96902327293383    6.99887375331979    1.34280428607234
C          -2.73212015329397    7.72683981749838    0.48614928696692
C          -3.69683658724889    8.73082555363718    0.74088063555887
N          -4.11174880359066    9.30506550968183    1.91820459976401
C          -3.61165866658810    9.08816787814207    3.25515098566396
C          -2.25758925360363    9.75775301266246    3.47472596469732
C          -5.12236602803412   10.27435427683018    1.69911126095686
O          -5.65063495122527   10.89969469149458    2.58962447873899
C          -5.31846985516363   10.27051290822294    0.26387402039395
C          -4.44205156881018    9.31471597808012   -0.28571228661013
C          -4.65084209311610    9.28542915556373   -1.71624244070969
O          -4.12143471684560    8.65281716426614   -2.60285784942614
N          -5.67905323398197   10.23226778925110   -1.93506052828832
C          -6.10300773765951   10.51512148997387   -3.28655520128078
C          -7.19050043617160    9.55195869285739   -3.75869043564588
C          -6.08076108733241   10.82479902689101   -0.76423010001134
C          -7.06279888466764   11.83495912838005   -0.56629955093383
C          -8.10140956283430   12.12982398222087   -1.37992957381368
C          -9.08929153542427   13.14056086883188   -1.13608610688588
C          -8.89928099441975   14.38004287849832   -0.49222228820988
C          -7.65205969500877   14.99925447369042    0.02988457823576
O          -6.52162053178561   14.62893331979437   -0.02768800310019
O          -8.00138308571326   16.19618323174008    0.60089690103737
C          -9.34346806847427   16.44563275294199    0.46303130805681
O          -9.86864523036694   17.39380255778507    0.95355727098586
C          -9.91857539583155   15.31766823720300   -0.32012763590684
C         -11.23836267407695   15.12500590837119   -0.76900813549353
C         -11.43101502687120   13.87663931454497   -1.38214600818241
C         -10.41268937456673   12.95255036827426   -1.57777849399526
C         -11.00244046239873   11.79590782502200   -2.29029574336830
O         -10.49102848320936   10.78449168001389   -2.66403714604632
O         -12.33182448346697   12.07207377113762   -2.48729695957316
C         -12.66429070458901   13.30468069011136   -1.97561485604664
O         -13.76482349045535   13.75418702061964   -2.04065636312091
C         -12.31148430495933   16.08014154751870   -0.68188331374438
C         -12.15222867710903   17.41032157118540   -0.84629767807995
C         -13.25486352718228   18.31056671756855   -0.80711827942862
C         -13.17978410895154   19.61601343892563   -1.17832866129194
C         -14.24146404807411   20.61186669717680   -1.11659010839898
C         -15.50938236040312   20.42796817736246   -0.63390964364894
C         -16.49759276562485   21.43634249176631   -0.60152808260845
N         -17.34734210088281   22.20579042467696   -0.54848989263649
C         -16.02296467085522   19.22857815317182   -0.09454197755353
N         -16.51823899022338   18.29977519752629    0.36353851993514
C         -13.71031471948059   21.86149054039122   -1.64657439040286
C         -12.35015047261830   21.66133735358807   -2.01990400298423
C         -11.96714130500628   20.26559027783169   -1.76375426816629
O         -10.90056156320587   19.74852388534576   -2.01546577148505
C         -11.59008641862541   22.66510887030005   -2.54931784072699
C         -12.16641591372691   23.94047507254215   -2.73645108442062
C         -13.52790614171752   24.14929972306919   -2.36935585949971
C         -14.28887810745696   23.09212870735943   -1.82129093808276
C         -14.09583454187994   25.42489273111224   -2.56585456439302
C         -13.35641057855447   26.44532984184707   -3.09891250319313
C         -12.01594975908415   26.23868454453467   -3.45897019733767
C         -11.43336218014874   25.01317615359705   -3.28125177212084
H           2.97666050242067   -0.85505093781564    0.57447818770598
H           3.64550878300848    0.02834600084097   -4.28786251281545
H           4.59599143836092   -2.17928825243625   -4.55828520977698
H           5.27203094506088   -4.35002525053612   -3.61195139116878
H           4.95617118218918   -4.81271316730080   -1.21347160062923
H           3.96094359917997   -3.10720712659483    0.25945682337244
H           0.82999197385622    4.22135912769364   -2.37467842962518
H           1.19842828140129    3.59106689625726    1.50938006723078
H          -2.02419128969612    7.12229550638230    2.41419770300360
H          -2.62484687886380    7.52646469048094   -0.57484726994085
H          -3.56792969106311    8.01657530601927    3.46512123333222
H          -4.35133766596221    9.54008940363740    3.92299623544738
H          -1.51989735254276    9.40337810421576    2.75834814298141
H          -1.90130496064652    9.54230082100914    4.47804072986241
H          -2.35604605531212   10.83472256093147    3.36346697916583
H          -5.21958483713758   10.37968566904517   -3.91901736619717
H          -6.42596545032503   11.55599608960301   -3.34959205321673
H          -6.80608382696490    8.53536033899850   -3.74105439632374
H          -7.47542816372276    9.79596599206913   -4.77826306734875
H          -8.07741919638179    9.59588299287903   -3.13101937479084
H          -6.95864395274893   12.34031212910512    0.38382059278289
H          -8.31347242022252   11.50822540745849   -2.23627249473336
H         -13.30668262680893   15.66303225395858   -0.58991558715010
H         -11.18016194607129   17.83077112983154   -1.05307852258530
H         -14.19516484376305   17.90556021199975   -0.45594579801640
H         -10.56087083943115   22.48534718424103   -2.82253663791114
H         -15.31597786928465   23.28446592267011   -1.55535164679005
H         -15.12775904208342   25.57943621629813   -2.28686668114037
H         -13.80039489355919   27.41831932015379   -3.24627809506717
H         -11.44769588547212   27.05544865948654   -3.87809483836278
H         -10.40208577745734   24.84788781189421   -3.55665095739691
