101
 SCF done       -195.301156950317          0.000813073301
C           3.71530958554906    5.23205484043806   -8.70555398065654
C           4.55327053990947    4.22523244261178   -9.09654732547581
C           4.25731826150128    3.30381767517641  -10.12300748304426
N           4.06293939783072    2.53522243296800  -10.95231581880206
C           5.78638759079016    3.95637207488989   -8.46419836679123
N           6.76975474365189    3.67586403965247   -7.94323159401221
C           2.36745643861766    5.48575403875371   -9.19161668142751
C           1.76504390707569    6.48610638764035   -8.37158636527432
C           0.48973310940579    6.92381733418714   -8.59288414434049
C          -0.25187563599993    6.37446401043326   -9.66197202692604
C           0.34522437157859    5.37693940336553  -10.48714288421399
C           1.66612364512269    4.94164193771108  -10.23478413267586
C          -0.40392756337914    4.84033548481333  -11.55377336397660
C          -1.68124173780717    5.26751683336108  -11.79635270966430
C          -2.26758841413131    6.25028210458856  -10.98471704049958
C          -1.56879069740865    6.79130739531811   -9.93975018926878
C           2.72370318040107    6.93002012811188   -7.35215104138018
O           2.55905717851604    7.77470450943046   -6.49532349696735
C           3.97843211986927    6.18291986544241   -7.63880374381625
C           5.17103055688327    6.53767903641328   -7.10678332310804
C           5.28296200615185    7.46975677598417   -6.02333388841784
C           5.94587732973162    8.67830890717378   -6.04285666728025
N           6.65584185201427    9.18101469792188   -7.14703286479116
O           7.26232348605177   10.22562946900334   -7.00812890311188
O           6.61801325588612    8.53068756134311   -8.18128350354679
C           5.72451712648432    9.37456270264390   -4.80093101754047
C           4.89705653631176    8.62079218001820   -4.03806040980340
C           4.59618648668420    7.39327119382894   -4.73821260724723
C           3.96998327916965    6.27057614215340   -4.24006383524066
C           4.25299748924434    4.91928715495468   -4.59641522289564
C           3.69531066391401    4.09486008015840   -3.66243368020071
C           2.96394215488435    4.88157306263846   -2.71709049141560
N           2.21391975143353    4.32070464722413   -1.67489340095462
O           1.60410559872058    5.06718615600090   -0.92152952535360
O           2.21558917764687    3.10505947940691   -1.57214287316902
C           3.06082903760720    6.22910129144066   -3.07451809553299
C           2.32350941102961    7.30393836842658   -2.56175795667704
C           2.02915343216838    8.44216087089750   -3.27490926567839
C           1.29792286629779    9.50230664277607   -2.72736226101725
S           0.75570589488566   10.85484395467813   -3.69512201009829
C          -0.02318353549838   11.66773991702709   -2.35866714252275
C           0.13860886708765   10.90581436677714   -1.19228321583600
C           0.86773283299026    9.71585829583283   -1.41488859607811
O           1.00048005843109    9.01798208442545   -0.27847389085910
C           0.35948963389586    9.73111548171581    0.67651077460841
C          -0.18344503033587   10.88104928611509    0.19641119668753
C          -0.67973413115063   12.89152760414774   -2.58303642393214
C          -1.25270883381820   13.65728394564154   -1.61569501076532
C          -1.91849805649440   14.86993824932956   -1.91486828419406
S          -2.58850170825509   15.91069457487638   -0.66301425670215
C          -3.10954133170427   16.94869987332239   -1.99145037073009
N          -2.76557159374999   16.46802071988395   -3.15524529217537
N          -2.12048137450619   15.34753353409138   -3.11706098691206
C          -3.82347529838294   18.15355015986474   -1.76779560734538
C          -4.30627897037102   18.92908330977954   -2.77076677735846
C          -5.02327738622822   20.11945446094220   -2.48894480783100
C          -5.59034626916449   20.93602395209940   -3.42064532928553
C          -6.34069574786058   22.15548065940268   -3.16549000866115
C          -6.52007240746714   22.77225972990804   -1.95479924741061
C          -7.25441443954631   23.96434266946498   -1.77452429860176
N          -7.83707756988487   24.92837977715229   -1.55380774025811
C          -6.00117835325282   22.33279673478349   -0.71860233103203
N          -5.61503756105209   22.04887611831473    0.32525427780110
C          -6.86020273293892   22.63253120300325   -4.44137097675820
C          -6.40690818638375   21.76341312534180   -5.47483201753728
C          -5.58657403550574   20.68867546557467   -4.89220901212839
O          -5.03627698510496   19.79027593868941   -5.48933370570442
C          -6.73969818914282   21.96298436454714   -6.78392438220022
C          -7.56190859496210   23.05913670045221   -7.12689886394467
C          -8.02362924268501   23.93136856237852   -6.09870334189449
C          -7.65892472858236   23.70210403628771   -4.75275339057290
C          -8.84893405748029   25.01913438349119   -6.45049397298653
C          -9.20252019868509   25.23602667002944   -7.75429891692722
C          -8.74671439382967   24.37716303274645   -8.76584831753137
C          -7.94337483089307   23.31242659026589   -8.45912122639271
H           0.05264084613251    7.68330527632747   -7.96151696863922
H           2.09717266238584    4.19300047145857  -10.88085071418542
H           0.05145667304689    4.08377772230995  -12.17550866220825
H          -2.24684212151836    4.85055835655556  -12.61586041392613
H          -3.27551577320305    6.57692525975892  -11.19194674978412
H          -2.01506211397792    7.54859257584923   -9.31200569697991
H           6.09688095287160    6.18143725566213   -7.54303313089531
H           6.15868681509028   10.32783194491422   -4.56866449888085
H           4.59025285717762    8.82769287571028   -3.03143968903172
H           4.90848101390786    4.62023819102969   -5.39208181717048
H           3.77214186099602    3.02489478837405   -3.60957355243133
H           1.88144424188071    7.16722600722239   -1.58270644716829
H           2.30347944107778    8.51689686580215   -4.31809464547174
H           0.35847156427593    9.31298533158638    1.66414086153290
H          -0.73617592165718   11.59966718197990    0.76352953819087
H          -0.72415961597357   13.24690562325839   -3.60299349237244
H          -1.21217825460980   13.36704472185483   -0.57812321794049
H          -3.98182836010635   18.43503372359612   -0.73464744382432
H          -4.15107922524723   18.63514705075081   -3.79811773697006
H          -5.12722653777456   20.37339693757170   -1.44124348486002
H          -6.38107392469256   21.28938708740579   -7.54801617043354
H          -8.02714621101441   24.37986431761264   -3.99928776675919
H          -9.19661053177145   25.67782824180322   -5.66829741021987
H          -9.83582346123696   26.07104450239483   -8.01368505963021
H          -9.03575171653737   24.56344369399342   -9.78928925131282
H          -7.58954819165861   22.64794510368408   -9.23365069159483
