103
 SCF done       -199.234300090658          0.000758738307
C          -0.76856674605471    0.13653095853856   -1.93027057333212
C          -1.61425398080106   -0.59129139957805   -1.13549998658948
C          -2.18060657387756   -1.82813029608791   -1.51280390640929
N          -2.67384496380111   -2.83552859691761   -1.75609696833303
C          -2.04185591949071   -0.23869631437084    0.16261491878536
N          -2.43114838601729   -0.03331274742942    1.22324227584834
C          -0.31723280710385   -0.25359280215025   -3.26249785533668
C           0.56047379318164    0.75332645863820   -3.76010572551326
C           1.15082356077593    0.65828253792759   -4.98795844039143
C           0.88590341603039   -0.47225405585125   -5.79228935953798
C           0.00858611973932   -1.48350520219901   -5.30417889679439
C          -0.58843297234254   -1.35593608351464   -4.02843583638735
C          -0.24841680211126   -2.60806769441080   -6.11382090720786
C           0.33271125736602   -2.73015130960947   -7.34699323510503
C           1.19632853169702   -1.73423532284944   -7.82651776790644
C           1.46714355685159   -0.62898535217710   -7.06581558439824
C           0.68639582950521    1.81646344430215   -2.75827564923869
O           1.35260529504395    2.83559647672645   -2.85396361987294
C          -0.14628640004632    1.41222875276657   -1.61783136110931
C          -0.28836733005794    2.11709779096881   -0.45349356544496
C           0.29787960131571    3.33054977172250   -0.05874638140279
S           1.34415898692534    4.34758648826829   -1.00753524285768
C           1.50036192874457    5.48726264293882    0.29257613595655
C           0.81213258266475    5.06408373667877    1.43218166832597
C           0.10849740170595    3.87785559132710    1.22183755638901
S          -1.02612609580419    3.15441674441991    2.34608509098312
C          -1.28838975925577    4.38665361353922    3.62129738853535
O          -2.34123622076186    4.39563836334067    4.18114391374961
C          -0.12923009947579    5.23165289877003    4.09477313438871
O          -0.04514223372285    5.52605062042751    5.25580433205192
S           1.11762171915912    5.79794784729587    2.99377971423668
C           2.15886221370568    6.74124441880110    0.16853991364605
N           3.24948208038608    7.01360656994640   -0.61894923508830
C           3.99070493303244    6.10047103358904   -1.45636590970173
C           3.50023601187643    6.13042812181600   -2.90070004450276
C           3.65197624838669    8.35869288816009   -0.50392423195930
O           4.61404673606277    8.81990385773152   -1.08677967099628
C           2.69868898287605    8.94547017845266    0.40691141245196
C           1.79456202253240    7.92644393492502    0.80102391046198
C           0.78356085098506    8.52865761693735    1.64118748364867
O          -0.21296651060668    8.07006109035976    2.16361050625880
N           1.17544632041685    9.87163131378718    1.74767954512447
C           0.45687899809666   10.78612291419603    2.60261318145429
C           1.13125725761951   10.92904618081968    3.96471285400012
C           2.31515396678003   10.13516579794352    1.02474362566247
C           2.93936238869049   11.40769018693124    0.97971378293705
C           4.05654890926430   11.64190742560593    0.24652927347842
C           4.74289385126389   12.88608653295108    0.20598007176365
S           6.11718515330404   13.06323398329040   -0.84630651117036
C           6.37258850611432   14.68800064823146   -0.33045345649350
C           7.55170371508082   15.46315127040368   -0.77379857158457
O           8.09121619227674   16.27239545827500   -0.06709505418699
O           8.01483761231420   15.18655899126692   -1.99583675415586
C           5.43788827964163   15.07603626133269    0.61802978886651
C           4.52936283452948   14.04541564543686    0.92006344093251
C           5.37601262548714   16.37366696218918    1.25605163374646
C           5.53443102174137   17.56390730158333    0.64519206316647
C           5.59346243165826   18.87287653657206    1.29009962123588
C           5.28547872020172   19.15818356962138    2.59119913041135
C           5.36920306796869   20.44847043884755    3.15933578638527
N           5.41196990013551   21.46983159607721    3.68026933426351
C           4.79630771455326   18.22933991922078    3.53461603451536
N           4.37065919357722   17.53601546804470    4.34482578586931
C           6.01404968595696   19.83504389038740    0.28267314075146
C           6.07191467534001   19.18270521990341   -0.98326285940939
C           5.72289921131682   17.76744923714210   -0.82407931349392
O           5.57422201098994   16.94473742700637   -1.70279141347648
C           6.42992183704908   19.84759797693162   -2.12184925515972
C           6.76153634680443   21.21769869121809   -2.04387861488046
C           6.71590939216076   21.87545118026076   -0.77978777111653
C           6.33711316980187   21.16379706605786    0.38034678167964
C           7.05377327656049   23.24287186034091   -0.71317543540552
C           7.41731728304758   23.92951991602187   -1.83933457405370
C           7.46047339524115   23.28159689347105   -3.08335303927524
C           7.14046897986042   21.95489029303031   -3.18340015653496
H           1.81270004977366    1.43548585619216   -5.34022757307947
H          -1.24660565443702   -2.14003387470253   -3.69037094383461
H          -0.91366488921052   -3.37247379311802   -5.74019317991682
H           0.12974383884305   -3.59560661743719   -7.95955917086147
H           1.64610514377243   -1.84692392590649   -8.80148664039602
H           2.13152955830246    0.14096651913901   -7.42984741262820
H          -0.93206436327835    1.69150266846527    0.30742723793093
H           3.91809839023005    5.09223804843335   -1.04432954807464
H           5.03340765294171    6.43083835720056   -1.42434051836143
H           2.46670984049904    5.80135746743769   -2.96843423145045
H           4.11217405024773    5.46751916295432   -3.50460952074923
H           3.58151158973869    7.13982802735546   -3.29588319193003
H          -0.54118975399396   10.35887928366006    2.73275689921612
H           0.36221493632696   11.75516959290954    2.10562601446316
H           1.16441904293175    9.96391845771146    4.46393595993971
H           0.56693051877940   11.61998154163333    4.58449974906429
H           2.14876401038982   11.29983233202664    3.86111549810664
H           2.49943784056314   12.20185688146469    1.56387371699610
H           4.47510835688779   10.84119767526602   -0.34955221090066
H           7.43497849668451   14.59635019181711   -2.49627849352605
H           3.73604868443245   14.16687597167508    1.63516178971396
H           5.17452198652860   16.33825179883159    2.31891833752861
H           6.46680300778681   19.33001211474768   -3.06882996343986
H           6.31772232456625   21.68839280764116    1.32247159382323
H           7.01875518943199   23.73720674919600    0.24649418458491
H           7.67417958172816   24.97636595301769   -1.77815731895829
H           7.74937050883359   23.83934966895722   -3.96155357079770
H           7.17331225089595   21.45067974069451   -4.13803900735100
