81
 SCF done       -158.732361546212          0.005312181248
C           0.18343063559701    1.20719743836522   -1.27250717701410
C          -0.78751723839386    0.98358286131210   -0.33817428356116
C          -0.57432936508526    0.25133485495175    0.84904147958127
N          -0.44244925910749   -0.33180508795267    1.82837841138774
C          -2.13721301065181    1.36057935904096   -0.50951244532994
N          -3.25710108496798    1.57211179200150   -0.64191566706655
C           1.51164955920597    0.60566280349025   -1.29147295900784
C           2.02543341328357    0.67258972577068   -2.62158057899260
C           3.24602507740752    0.15220391265836   -2.94707748941457
C           4.02522388036259   -0.45858151747239   -1.93976529817897
C           3.52337615136087   -0.51735973959444   -0.60626726844102
C           2.25362368154819    0.02306427198726   -0.29877694600023
C           4.31566885569147   -1.12336566537935    0.39027084468573
C           5.54367039077229   -1.64568942974863    0.08706028114779
C           6.03690635920917   -1.58664807245846   -1.22546163648736
C           5.29337418430457   -1.00716810815148   -2.21749405646092
C           1.06540955996087    1.37685166333876   -3.48487981610746
O           1.11999720670223    1.57294608373129   -4.67489430372045
C           0.00759983520995    1.87973263559147   -2.54868223375177
C          -0.77300460341780    2.91448285289760   -2.93200164180024
C          -1.55382646047715    3.76352769716632   -2.09883844210165
S          -2.73786064957399    4.87574252888254   -2.76355710421387
C          -2.99131860967543    5.39001192546630   -1.10679681548108
N          -2.22253164244388    4.75691066288409   -0.26155341978163
N          -1.44395168969805    3.87076363870242   -0.80215683453956
C          -3.93290268254345    6.40231608220729   -0.76936285769945
C          -4.20729073174140    6.72706404857941    0.51348764411784
C          -5.11018878422569    7.74531796466113    0.92825379918491
S          -5.45464182401956    7.92890237950503    2.62252129880880
C          -6.50978343028390    9.26728688819169    2.32949106491294
C          -6.59324085990876    9.56138748612207    0.97564236514968
C          -5.80155205847095    8.69408871266566    0.17948451068012
C          -5.74540389900745    8.83997111864733   -1.21850739047411
N          -5.72149126023427    8.99281484071101   -2.35429502845563
C          -7.38373935513400   10.59038467497099    0.42519182091724
N          -8.01053865379016   11.40057948704367   -0.08648921233384
C          -7.18664842959948    9.96970773617597    3.36307829991465
S          -7.24217732746169    9.45593037051655    5.04161516096754
C          -8.22760642833458   10.89866253266136    5.29783142747270
N          -8.40693212127247   11.57756138186909    4.19995697080111
N          -7.84620990976647   11.07392231435507    3.14586228251674
C          -8.78807681552248   11.28004655599647    6.54474251836489
C          -8.71573451894492   10.54728480456705    7.68038685635112
C          -9.34303166410355   10.98196176341457    8.87829547749801
C          -9.39241226469769   10.26615057443572   10.03485782823881
C         -10.05872136160439   10.65239918597003   11.27026700859830
C         -10.60070971935968   11.87600006943155   11.56170834970156
C         -11.22616551178726   12.19188911872937   12.78810746623513
N         -11.74030484383857   12.51558726804071   13.76101592379852
C         -10.60126020195117   13.00044835027987   10.70810248780140
N         -10.63860695806671   13.96122787901707   10.07842719038254
C         -10.01549231057125    9.50832241527614   12.17244253165168
C          -9.27120230484372    8.46282219314038   11.55245011947255
C          -8.83435207715088    8.89406685267607   10.21596254007802
O          -8.16318899701634    8.25995060503621    9.42976939071642
C          -9.05735277865497    7.26345297012643   12.17059265958619
C          -9.59642212722442    7.04659693236238   13.45801740060177
C         -10.35074551626237    8.08363910402962   14.08153699171088
C         -10.54959802465160    9.31699883363422   13.42020859844866
C         -10.89135816356167    7.85388316801386   15.36340434085359
C         -10.69654512711532    6.65839820877367   16.00040170638212
C          -9.95226320415657    5.63893291667689   15.38653255175207
C          -9.41370574461556    5.82866863085470   14.14258172850714
H           3.61319741343728    0.20812275474862   -3.96120373314524
H           1.90128247009574   -0.02435912775714    0.71996543632977
H           3.93102561655320   -1.16918109208334    1.39854792006409
H           6.14260598688774   -2.10787787638966    0.85741021868252
H           7.00886228168684   -2.00202001989163   -1.44614262568328
H           5.66728211528576   -0.95888032212468   -3.22983428869238
H          -0.74113701668871    3.17729695349268   -3.98346567138005
H          -4.42303468776959    6.89503707779201   -1.59517275419512
H          -3.71074983524489    6.17383976822414    1.29933404279362
H          -9.32125336419988   12.22208685580295    6.52505821766341
H          -8.19226518114156    9.60085468470217    7.69334951184496
H          -9.83935050712862   11.94361269379657    8.83113789152224
H          -8.48897395549899    6.48769560190555   11.67885233663854
H         -11.12658780806741   10.07981718224297   13.91859356092989
H         -11.46334503643461    8.64181738041038   15.83200994922919
H         -11.11575216377873    6.49132394085180   16.98134413941223
H          -9.80810892982431    4.70232195938179   15.90424522539865
H          -8.83973458348691    5.04745607821485   13.66513220079031
