100
 SCF done       -193.620308338850          0.000749699964
C          -2.38415157107688    4.65207863874373    3.38304458024977
C          -3.03215774625161    5.41817269128480    2.45206036813821
C          -3.76403861832704    6.58135262011323    2.77085036589311
N          -4.35038442772608    7.54571527455990    2.97817404685577
C          -3.12698275704772    5.07591160037314    1.08615177880420
N          -3.27194724319116    4.80690984845353   -0.01977849946054
C          -2.50897597061522    4.79140057255620    4.82958651555373
C          -2.14388348762849    3.55288681598027    5.43658681081847
C          -2.20868787994196    3.37130413207251    6.78847596971016
C          -2.63833640935288    4.43929408593792    7.60769373733212
C          -2.98729618597036    5.68461539098047    7.00812857079723
C          -2.91588167417538    5.84346907161298    5.60504582760142
C          -3.40890592664560    6.74340285301049    7.83779847499955
C          -3.48654387774364    6.58111561863764    9.19429654266290
C          -3.14339139035102    5.35501476797511    9.78366399229841
C          -2.72837520986965    4.30700883671027    9.00749007023514
C          -1.70243024050359    2.60885300298675    4.39675418599290
O          -1.36912884170891    1.45450924415623    4.51909452296405
C          -1.67607886054745    3.41198313917679    3.13349327601622
C          -0.91436922721555    2.97855891963495    2.09790306008417
C          -0.39774460382855    3.71281764033633    0.99959557163220
O          -0.53222611513523    5.06281529920728    0.92011339530708
C           0.11577499284673    5.49721539597087   -0.17158709019816
C           0.71438169820734    4.40306244859131   -0.80616979115349
C           0.37708655743187    3.26618550743024   -0.05495354641676
N           1.66870004254796    4.40077914180020   -1.86901509537091
O           2.31998750980703    5.41056242401889   -2.02790412540647
O           1.81746617935788    3.36321213228708   -2.46684827692839
C           0.04887106118315    6.86022750446372   -0.57690775306544
N          -0.17302951703366    7.92907829537191    0.25811529917692
C          -0.27535402420206    7.90784270492084    1.69623467315571
C           1.07104415103284    7.63804246236228    2.36171366172464
C          -0.16030017101627    9.15124671178270   -0.45288072014139
O          -0.30491880980328   10.23282332468704    0.07242670954456
C           0.03411689879431    8.75223526038684   -1.82700620391795
C           0.15586130966928    7.34428799526994   -1.87119064264172
C           0.26058267014160    6.95963830914835   -3.26534745138853
O           0.28800638774493    5.87911110252584   -3.80523959279779
N           0.28390309329701    8.18661551908513   -3.96829310318129
C           0.33179405129413    8.17212621172288   -5.41101206586110
C          -1.00458856204729    8.56829053275615   -6.03214825484438
C           0.14451809043203    9.25770959771423   -3.12073761184798
C           0.14977899739108   10.65546290604574   -3.38396818043524
C           0.48298486050306   11.31832483016994   -4.51432467107019
C           0.51601190909130   12.74247203830729   -4.59582953801320
O           1.00447279433174   13.29814722787851   -5.74551348910838
C           0.98916949043341   14.61616219700579   -5.61302669263659
C           0.45480948404120   14.95044500125306   -4.37678821512856
C           0.15821230155531   13.73791888869643   -3.71525000308292
N           0.31091826293473   16.27217798189624   -3.90540867570005
O           0.67318750980433   17.16161189545898   -4.65847043068772
O          -0.15394957882782   16.43933026646197   -2.80114043848319
C           1.47650843792267   15.52159212344055   -6.65163726667336
C           2.76564427849567   15.88936456372302   -6.68750070572067
C           3.45393560939795   16.82594532528349   -7.57094754991207
C           2.94919067685279   17.36320560381789   -8.71937744946554
C           3.65734943020717   18.25434498374844   -9.55583460631252
N           4.18847086231275   18.97762564994758  -10.27007687924968
C           1.66684398427321   17.06613354990462   -9.23174073607996
N           0.64267670937336   16.84407685855665   -9.69824005397717
C           4.78183626093289   17.04084169045563   -7.01582104724417
C           4.95149478290021   16.21331230398331   -5.86454680189437
C           3.72870515229433   15.44269934493281   -5.63016750344132
O           3.49469137574376   14.62980263639189   -4.76489049607494
C           6.11065235917657   16.21340150617969   -5.14034347062587
C           7.17294458735928   17.05278989237971   -5.53968741745903
C           7.01204383142312   17.88362199337453   -6.68778676743763
C           5.80190718856578   17.86561391338728   -7.41656899536723
C           8.08046538927594   18.71799471288072   -7.07626142864844
C           9.25044428638667   18.73245275197905   -6.36672783065535
C           9.40683023380967   17.91541673301214   -5.23648172987264
C           8.39044018360824   17.09323446305164   -4.83163492144176
H          -1.93594473101337    2.42353472301581    7.22814598777660
H          -3.17625372328622    6.79933635169143    5.17761719285366
H          -3.67511763314454    7.68437033594768    7.37938339021689
H          -3.81365651740315    7.39703797974719    9.82100688933599
H          -3.20945675399798    5.24507439736250   10.85561447031206
H          -2.46293453030324    3.36081513841381    9.45565103978275
H          -0.56480460239285    1.95468718683062    2.16386372970032
H           0.67911732585142    2.26022626058994   -0.26250126755638
H          -1.01177386627382    7.16068976953329    2.00066648976084
H          -0.63794617535989    8.90006835233361    1.98012639899094
H           1.45660579699494    6.65967224469672    2.08272662841319
H           0.95991898111953    7.67247466720601    3.44202902040729
H           1.79271405410317    8.39346166455672    2.06089673155136
H           0.56893121499893    7.13914532327661   -5.68334045482182
H           1.14401207950695    8.81298158241291   -5.76280690436981
H          -1.77646270806339    7.86731461344688   -5.72458878903896
H          -0.92694361390238    8.54300393472988   -7.11547422336536
H          -1.30302701927378    9.56767317027689   -5.72413770729119
H          -0.09932094519890   11.23422052133344   -2.50416322993650
H           0.78857715418374   10.81417867413121   -5.41737269562702
H          -0.25354431855761   13.64192507621773   -2.73269533639285
H           0.73933993345001   15.91162107893106   -7.34070460511573
H           6.21246771988822   15.58037468665374   -4.27140394548548
H           5.70792936195323   18.51088057629160   -8.27569587413719
H           7.95600142102927   19.34541610388294   -7.94637711976744
H          10.06275429044236   19.37444506891027   -6.67219355271882
H          10.33647104111375   17.94116149365563   -4.68828765663969
H           8.50450976719818   16.46232254395098   -3.96254279755030
