109
 SCF done       -208.777750052961          0.000806255499
C           2.67478394940385    3.05827537057781    4.33941633602266
C           2.60275596337467    4.36492065739153    4.74626291972667
C           3.60154898080893    4.99620836945451    5.52235385566955
N           4.36166653243934    5.54497094643428    6.18248870275733
C           1.50589473812489    5.22087290331144    4.53571903236823
N           0.64619533608808    5.96850550960093    4.39110457483915
C           3.75523845980347    2.14336917261660    4.69353439151499
C           3.29633082504397    0.80342379623142    4.53271588369594
C           4.08889641994536   -0.26758936400131    4.83220946385860
C           5.40177253495660   -0.04200707550728    5.30290329853919
C           5.87551305472981    1.29551889559958    5.43950100813913
C           5.03160849432133    2.38528403284649    5.12534834504661
C           7.19054660501986    1.50651018696481    5.90113990490587
C           7.99835991471266    0.44892824209251    6.21969407125428
C           7.53053740091138   -0.86712992418414    6.08740648075376
C           6.26030418438702   -1.10752194154986    5.63817151103815
C           1.92259252164085    0.82239520942070    4.01162905593634
O           1.18279311285447   -0.10961597936984    3.79701172217990
C           1.61745802967611    2.26343613516628    3.74179100110070
C           0.49132812605112    2.55733706201109    3.04608062773751
C           0.07891395805358    3.77161803941293    2.42986587698378
S          -1.59530914051568    4.22274368162151    2.55395772589608
C          -1.31790673372081    5.71526112134413    1.70014464677658
C           0.00060408547442    5.78889414254101    1.26384749317873
C           0.78190674585326    4.70296375875803    1.68386521495423
C           2.20232313469931    4.51217187740082    1.24713560125608
C           2.82314987940920    5.81269288783628    0.74503503996051
N           3.22934078279602    6.66490064971803    1.90863709763930
O           3.75112668973593    6.08997852682650    2.82862647180133
O           3.03635065824937    7.84890432464592    1.82992688021730
C           1.89193647752502    6.59346000421467   -0.17444634520202
N           1.67189083980980    5.81587256053844   -1.43977233619289
O           0.73219614124020    6.13526968388268   -2.11624601989194
O           2.46690904291059    4.94817462433111   -1.70058974018572
C           0.55138583052541    6.92992448186634    0.47162021003568
C          -2.36141854265532    6.65694751233026    1.58325189482466
S          -2.16063713662435    8.25712374580328    0.91088350808854
C          -3.80828481816579    8.74969779997883    1.22842606450045
C          -4.49910759087105    7.68565177805731    1.82830049904209
C          -3.67925146260743    6.53585867970530    2.01963646442571
N          -4.42926824776579    5.56577299368078    2.59930500658695
C          -5.70322436800348    6.05805768492357    2.77898423073754
C          -6.72124266032467    5.28166513437929    3.35186663594029
N          -7.55571581987433    4.64634161541238    3.81586169464509
C          -5.78298388722465    7.35626802832060    2.31620402048249
C          -4.19908534958040   10.05240474292763    0.89117864796844
C          -5.41132849171634   10.60703660284912    1.19626472875819
C          -5.79637262973551   11.92561547553822    0.88953073927694
C          -6.97893414294180   12.52742406231299    1.28776552085494
C          -7.00727873056012   13.86559300376762    0.83017220943817
C          -5.75137713309368   14.06330656775548    0.07335524287684
C          -5.03992903694773   12.90975314514016    0.12269570862371
C          -5.34824415835036   15.21990464699370   -0.60462431011629
N          -4.98452287485046   16.14288103913113   -1.18323346659176
C          -7.97889190420136   14.81694933827436    1.06700374985696
C          -7.98569821186799   16.17775740869737    0.65166267013710
C          -9.13850000132160   16.79248418116883    1.10968380165002
C          -9.88846626630795   15.80698859124615    1.87423879068487
C          -9.20956878632593   14.62877938344153    1.84920057267285
C          -9.62380549193543   13.45572668055353    2.48929634798908
N          -9.98128831343318   12.50474602647962    3.02610954324735
C          -9.41846722073592   18.16561196128304    0.90217354755887
C         -10.59198116678868   18.85025882447349    1.04552129317772
C         -10.72700513933508   20.29635545014093    0.97383202833363
C          -9.70904281850333   21.21498708342683    0.94713278824728
C          -9.90760934058217   22.61060032789900    0.88381068433884
N          -9.99586656174638   23.75391745562788    0.82717379916084
C          -8.32903545797287   20.92659362236622    1.00909206214120
N          -7.19080510784043   20.79129874756525    1.08210160848589
C         -12.14817511060658   20.61937136887972    1.02013275706140
C         -12.88370154751688   19.40741942887766    1.14332967566415
C         -11.95663720664187   18.26376890674010    1.15021501246552
O         -12.26722350467349   17.09230818701278    1.16449935460679
C         -14.24597119603507   19.39175322172283    1.22975708910778
C         -14.95083991978301   20.61546338890860    1.20287415773018
C         -14.22368158821604   21.83402645751032    1.07388265830863
C         -12.81315996447214   21.81683155636317    0.98008937095081
C         -14.93677912509106   23.04994128537568    1.04703965382931
C         -16.30145118146165   23.06341939525597    1.14589471115517
C         -17.01609742648954   21.86288178050640    1.27391711578684
C         -16.35521849191617   20.66483807845846    1.30133843361498
H           3.71846286636312   -1.27474999740594    4.71230320915433
H           5.41852911395638    3.38738349012727    5.22320368035034
H           7.54422435646253    2.52160189416600    6.00547264445708
H           9.00258244550056    0.62080110402960    6.57676098586647
H           8.18153640772299   -1.68952566356869    6.34319937408561
H           5.89482908527945   -2.11860480908934    5.53426425633344
H          -0.20517324996443    1.72686718868151    2.95330138265889
H           2.23351570145613    3.77340626168679    0.43953337096392
H           2.81531875979186    4.12160081330896    2.06051623169566
H           3.75689800220140    5.57507489874408    0.21822516265941
H           2.37418341244485    7.52849821922223   -0.48790548606280
H          -0.14874256020384    7.21529370186818   -0.31895515597624
H           0.67833740969673    7.79870657754666    1.12515052981775
H          -4.12532530386930    4.64341357022580    2.86316868365549
H          -6.66594452156698    7.96157977154232    2.33373772523464
H          -3.45526380554542   10.64857816300171    0.38064971290444
H          -6.13505795963083   10.02008592707207    1.74182142261333
H          -7.74822923855751   12.06180512673108    1.87147890680052
H          -4.08371210403313   12.74225113036622   -0.33657703264227
H          -7.22075382349483   16.64578647398367    0.06222605920979
H         -10.81493208832067   15.98716862401815    2.38162559122262
H          -8.55363528727962   18.73361197173029    0.57802944859641
H         -14.77807242800555   18.45657564199765    1.32312055332795
H         -12.29478291418340   22.75672121386247    0.87792215581251
H         -14.38223178733059   23.97173556721638    0.94942166240666
H         -16.83828271045024   24.00001372340513    1.12652328081230
H         -18.09272964859918   21.89218660861978    1.35078412890933
H         -16.89970657359096   19.73704783852049    1.39956919332793
