104
 SCF done       -202.447523274887          0.000896075627
C          -0.41268136471581    6.08047460754895    3.34171314964497
C          -1.36827390112735    6.88435974828615    2.78664403578235
C          -1.47224330778595    8.26752736109915    3.03581602045223
N          -1.56693513050918    9.40535461494040    3.15512451159167
C          -2.38094730567691    6.42419106705651    1.91910316534168
N          -3.25219350477961    6.08978676106774    1.25057742491906
C           0.45593754528510    6.43949717343537    4.45393183497611
C           0.93789789319831    5.24232057529074    5.06283317024302
C           1.74449466434905    5.27354323880575    6.16491899918264
C           2.12319596288895    6.52225022587013    6.70636980554737
C           1.66113810276633    7.72175831667596    6.08952667622786
C           0.81708668549760    7.65941121101204    4.95796042430908
C           2.05631521815568    8.96072048695698    6.63411373997501
C           2.86494034895519    9.01530300453597    7.73645243419078
C           3.31603474935765    7.83430802004582    8.34519936325798
C           2.95293278321335    6.61478996008156    7.84154220368228
C           0.44745915107833    4.07628398173837    4.31063214317309
O           0.58940792783262    2.90426964629641    4.55682009483631
C          -0.22257471592358    4.66111446928863    3.10063473095924
C          -0.33825585582918    3.90551144046393    1.98226834249232
C          -0.56649697877104    4.35335680084787    0.65254406734470
O          -0.54985507453209    5.66469716612940    0.33393260142472
C          -0.78920552568430    3.64069484010723   -0.50980790093630
C          -0.90598271882602    2.27977041944089   -1.04916088023628
O          -0.84335451573423    1.20726122373720   -0.51597393355461
N          -1.10597263592417    2.49483501475636   -2.41219306128732
C          -1.11902398179883    3.82236948019564   -2.81379319243999
O          -1.22491775179287    4.18793646610550   -3.95619776941743
C          -0.94303269275339    4.57946662058389   -1.56140744451519
C          -0.79672574805430    5.83389822563708   -0.98822372773379
C          -0.83245784404439    7.20355135459252   -1.39187444227175
N          -1.42786890497526    7.73616705772951   -2.50024011900870
C          -2.29605346360251    7.06418963209101   -3.43709311540997
C          -3.64418200210231    6.73392055990419   -2.80102216515284
C          -1.30392828944589    9.14795197232210   -2.52477521871348
O          -1.76657809825046    9.83368181946069   -3.40976251677469
C          -0.55169543434754    9.46006012251069   -1.33147412802921
C          -0.27842752358748    8.24743155716687   -0.65518070791995
C           0.48197765091709    8.57027680886459    0.53380595065320
O           0.92853070776714    7.88274508204528    1.42952461434096
N           0.61796103076535    9.97173660709083    0.49521434564939
C           1.28763991563551   10.65927347879310    1.57292213300401
C           2.77348091773756   10.85733654434868    1.28276759705997
C           0.00740312349284   10.51372437692832   -0.60882925828467
C          -0.09757645383115   11.87067784486472   -1.01096794046743
C           0.56825345383737   12.97068589536761   -0.57795891043231
C           0.30001878693885   14.23960692241017   -1.16342052151250
O          -0.61012817657096   14.33314252292667   -2.15338558649431
C           0.80807339967941   15.50732071298305   -0.93009240502558
C           1.75926740243892   16.27909973742327   -0.12094855738979
O           2.51131571863776   15.93616328552573    0.75247899097790
N           1.61520151859092   17.57764151558447   -0.60130142945343
C           0.68509286529253   17.74106327194626   -1.62904844124462
O           0.43761391811887   18.77713075023294   -2.18024414859848
C           0.15672676722671   16.38201083950108   -1.83086184432046
C          -0.73017161189123   15.61205252546883   -2.56761857745821
C          -1.61929371290894   15.96506837671495   -3.62194806431107
C          -2.51033338046539   15.13236655954335   -4.21839739613109
C          -3.26267294694463   15.41719964786302   -5.43688566617937
C          -3.53979845348864   16.65211298673700   -5.95391189946804
C          -4.27736961109401   16.85689407381858   -7.14046428296178
N          -4.86624928266928   17.08257178297285   -8.09925425985025
C          -3.18567014657244   17.88144059696312   -5.35512622976832
N          -2.95275779834462   18.91720846391466   -4.92054677551298
C          -3.70441362521059   14.14036563397754   -5.98445298665377
C          -3.41690238739549   13.11495389567635   -5.03798711977472
C          -2.82162436861495   13.71099086608380   -3.83598632402820
O          -2.71014546898483   13.19470936374226   -2.75061733789703
C          -3.69314030580038   11.79941916762747   -5.27713263807376
C          -4.29495941936266   11.44490791137166   -6.50444034683388
C          -4.60305234305491   12.46355514549892   -7.45390773773018
C          -4.29399937489044   13.81550430610986   -7.17869810157526
C          -5.21389804101595   12.09341011744473   -8.66994747619460
C          -5.50481534834755   10.78338002183766   -8.93696295298182
C          -5.19643205246675    9.78169594771488   -8.00361569891767
C          -4.60386436569037   10.10564862229075   -6.81355872801012
H           2.09178506513008    4.35648041357428    6.61715407713421
H           0.48380319613022    8.57908281600067    4.50474712651733
H           1.70350244615109    9.86726703328761    6.16464505781946
H           3.16115621572821    9.96912547287083    8.14649120831212
H           3.95296497978696    7.89604918059735    9.21471816167218
H           3.29763371447213    5.70259582305284    8.30592450218874
H          -0.16476770735005    2.84032316953058    2.08401009290368
H          -1.20618312519976    1.73660149416221   -3.07272807450391
H          -1.81279022200503    6.16339050245866   -3.81473268748399
H          -2.43472721838317    7.76456623086177   -4.26518241779204
H          -3.51708874322327    6.09855694368820   -1.92736473472463
H          -4.26884615156462    6.21354190671739   -3.52115186494129
H          -4.15039486630280    7.64534317047299   -2.49038441291251
H           1.17678565780501   10.02295033142458    2.45546194542853
H           0.78001740110820   11.60647001345386    1.76124175745282
H           3.26580568584623    9.89045996900459    1.21100528692894
H           3.23432232619449   11.42349850008205    2.08726820944912
H           2.92600740839195   11.39022959124386    0.34700585585046
H          -0.81896791856292   12.01167634604937   -1.80867057539027
H           1.32897028567753   12.96850316064323    0.18507171453930
H           2.15142407929484   18.35199582576142   -0.23566424917924
H          -1.49997715049624   16.98148873778661   -3.97362955402355
H          -3.42900291786537   11.04634385106688   -4.54993320115105
H          -4.52339401406586   14.55954623555372   -7.92514201850102
H          -5.44975764660030   12.86676759207657   -9.38620263548175
H          -5.97407032961038   10.51113288000220   -9.87048050222888
H          -5.43150789812851    8.75318746315658   -8.23336143173247
H          -4.36307781534018    9.34279689114653   -6.08822924117691
