116
 SCF done       -225.016800224243          0.000661643861
C          -3.10874370700688    0.95572287746745   -3.29634852863802
C          -3.62360311934852    1.86952748797740   -2.42017795726662
C          -4.75527239728501    1.62529214412724   -1.61218270624932
N          -5.67065156385323    1.47894009177349   -0.93632842047600
C          -3.04821724359837    3.13125913721177   -2.16760668966028
N          -2.60242308702900    4.15393238539953   -1.89382747464096
C          -3.53418957267570   -0.42536576886640   -3.45848966383151
C          -2.50834783144876   -1.14834100147536   -4.13906428766578
C          -2.63353844736478   -2.47969665400496   -4.41705432232966
C          -3.81051968825129   -3.15691462122800   -4.02836901122812
C          -4.84542974404768   -2.43643326886255   -3.36285893695797
C          -4.68821444347459   -1.06030932844534   -3.08344697862374
C          -6.02012115852000   -3.12305409696009   -2.99302865804452
C          -6.16692203574943   -4.45608240060259   -3.26412123874648
C          -5.14680800336109   -5.16464636825554   -3.91698257845868
C          -3.99379172332349   -4.52920594229675   -4.29020946520115
C          -1.40935171038716   -0.23516299565368   -4.48275746420712
O          -0.34304832924920   -0.48281741974493   -4.99371673581807
C          -1.91685508752012    1.12263760009886   -4.11421290196769
C          -1.38017354858001    2.22013201787783   -4.68026624322371
C          -1.92341021467738    3.55003578827256   -4.72496009992566
C          -3.17004838566658    3.94055487873875   -5.17407654009961
N          -4.22138419990084    3.14244437412802   -5.65817510920119
O          -5.14960392488800    3.71296611440097   -6.20247749380491
O          -4.16284236889989    1.92912117500166   -5.50781675937284
C          -3.23954596539254    5.38533645196146   -5.20441066965658
C          -2.07805598567264    5.87858652020700   -4.72577036071756
C          -1.20824612871532    4.78221602915109   -4.37093910830794
C           0.00489520462942    4.85881600205815   -3.72546198710434
C           0.97713682724472    3.81891730803852   -3.53390683932880
C           2.13263819668285    4.37440645767296   -3.09486041876338
C           1.93894084979145    5.79562553973535   -2.93424210170302
N           2.90638162412919    6.60567337224563   -2.31489379984808
O           2.64323251334442    7.77804801902154   -2.08972086998771
O           3.96052242252572    6.07689653782338   -2.00780002133876
C           0.63025462137241    6.11341857079603   -3.25994248918639
C          -0.06344142149222    7.33941697878028   -3.06062781817857
C           0.40191528916082    8.56246631743291   -3.41756710493885
C          -0.25612521089264    9.80276698393365   -3.22142859240246
N          -1.07943321646965   10.16970284396050   -2.18863694679725
C          -1.23865724922765    9.49709720590391   -0.91651502297623
C           0.08051130861978    9.42047439659745   -0.15448101611458
C          -1.58312854180452   11.47894162835791   -2.36500719184218
O          -2.30529929094885   12.04274823688176   -1.57303146756128
C          -1.03924369356158   11.89902858434677   -3.63935286606010
C          -0.20998562108309   10.87531049754911   -4.12069565395940
C           0.28073932737758   11.27895758884597   -5.42213218090354
O           1.00092899829091   10.73343446263184   -6.22646323642566
N          -0.29925701002793   12.55386336238218   -5.63687771277344
C           0.03326609550989   13.28307176275652   -6.83645933553180
C           1.07188269491305   14.37108209215331   -6.57327154401565
C          -1.09637269317895   12.93635626045340   -4.58248600373103
C          -1.91442101412483   14.06521441825388   -4.38720283664429
C          -2.11548742393160   15.14252097714821   -5.20483226593739
C          -2.99765564672226   16.21532176982776   -4.98920434388424
S          -2.79914477818861   17.59497661157550   -6.03905777463484
C          -4.04833516965365   18.50668008422694   -5.27130045974638
C          -4.62993612941665   17.74778989895260   -4.23061836036976
C          -4.05435360408932   16.44581566063396   -4.08244815380795
C          -4.61475192385556   15.55791574977542   -3.14445249787585
C          -5.65557882890530   15.96781419133139   -2.35401387147341
C          -6.28198874261430   15.02738094105401   -1.35935044384933
F          -5.77471369169617   13.79243020960182   -1.42441506265569
F          -6.11839729911848   15.44814679480384   -0.09472029075226
F          -7.60665909710903   14.90202189874732   -1.55494457570708
C          -6.18270356613693   17.28177576802321   -2.45390494356175
C          -7.23414629871010   17.71590004526054   -1.61170045701957
N          -8.07878608582480   18.11377568577699   -0.94887870314535
C          -5.67827623759926   18.15272658825601   -3.39559001495607
C          -4.39830640355167   19.80439609175181   -5.68472926439756
C          -3.81142453806717   20.44778861658502   -6.73457249743234
C          -4.12884839999969   21.73495436410876   -7.20682855685546
S          -3.28639280723236   22.36182513982947   -8.61769391045647
C          -4.15431364294899   23.87901649364601   -8.62393943803885
C          -5.04373430027723   23.87739157487900   -7.57146199894548
C          -5.03349504812458   22.69631616834551   -6.78608666630709
N          -5.96386684143148   22.86859259778356   -5.79571541842790
C          -6.56558973552590   24.11629725591959   -5.91701269856328
O          -7.41770175682307   24.57347215928103   -5.20526252994917
N          -5.98375887415674   24.71427927887172   -7.01935722290800
C          -3.86231051644942   24.85072145775455   -9.63544954630735
C          -4.45915442841897   26.03405290305033   -9.77870020654503
H          -1.84606771004257   -3.00940249679028   -4.93245411885801
H          -5.49265602693506   -0.53371808818796   -2.59430045389783
H          -6.80191923924525   -2.57392062738364   -2.48946609066490
H          -7.07004664837690   -4.97298757047620   -2.97621376299517
H          -5.27962454831080   -6.21618580011959   -4.12301006253913
H          -3.20580617461871   -5.06925651551470   -4.79441693292420
H          -0.46364736682701    2.06353278485204   -5.24280733010290
H          -4.09505779450241    5.92375685869531   -5.56396239822634
H          -1.81376724393046    6.91421673542580   -4.65657671314631
H           0.82051224751500    2.77815854022022   -3.72979814648523
H           3.05731021466867    3.87806204114246   -2.86880338050666
H          -1.05127551801390    7.23554085063253   -2.63177729131018
H           1.29602516404072    8.63278635483539   -4.02243163144963
H          -1.66120981144444    8.50125766647613   -1.06108551244671
H          -1.96170915781225   10.09919436503127   -0.35815289674158
H           0.83666745946547    8.88666084594309   -0.72567519221846
H          -0.07493216209322    8.90516372936321    0.78889647705087
H           0.45093093020118   10.42126143393313    0.05471616178857
H          -0.87609319243583   13.69100581355920   -7.28540835627068
H           0.45491229898878   12.54262748972561   -7.52339558145155
H           0.72891381341003   15.07276310345952   -5.81605705225740
H           1.27670742295303   14.91503663382397   -7.49126378325305
H           1.99668933854971   13.91785691278266   -6.22555193050585
H          -2.42139626082805   14.02677922561384   -3.43462735731909
H          -1.52938655580579   15.24105866501243   -6.10671169260542
H          -4.25484615025211   14.54736371431784   -3.05309474187956
H          -6.10445943843886   19.13979405319772   -3.48170349877511
H          -5.18667208470329   20.29023581196149   -5.13049513200630
H          -3.02993447046617   19.93332642029127   -7.27918746547149
H          -6.20475111297330   22.22993097755997   -5.05842906178185
H          -6.23555893299367   25.63572918211830   -7.33074761234207
H          -3.08337871917683   24.55693697120838  -10.32616123857771
H          -5.24151114911112   26.37492002365816   -9.12406404699248
H          -4.17480099873308   26.70351628082686  -10.57018853628126
