106
 SCF done       -200.190772757296          0.000267261987
C           1.61864916300937    0.12808399624441    0.65181273404848
C           1.90705908353726   -0.00495971511172    1.98324946250991
C           2.46242348948738   -1.16798129395543    2.55889705828026
N           2.92121272164373   -2.07887891391513    3.08509247029005
C           1.68171762797102    0.98234017064812    2.96663121159228
N           1.52341606599075    1.73097832581073    3.82215170941661
C           1.78474149245223   -0.90186746780745   -0.36419607334709
C           1.26789208699056   -0.41371098375187   -1.59851282557375
C           1.28367759322509   -1.16883730818728   -2.73675948641930
C           1.82422617920324   -2.47249477348204   -2.69146247660154
C           2.34964497303115   -2.96628577526501   -1.46187249261489
C           2.32178934415153   -2.16111429355011   -0.30059246274571
C           2.89387845202843   -4.26651135731761   -1.42984122990696
C           2.91698165619946   -5.04355117713378   -2.55590895281078
C           2.39787081864078   -4.55712369980638   -3.76535547985452
C           1.86262447281581   -3.29941841873087   -3.83161465732307
C           0.76243252472039    0.95382142158213   -1.42144643250251
O           0.32656131580859    1.68079646414814   -2.28697759305699
C           1.01807282046469    1.28930240634360    0.01452058118833
C           0.87391871563540    2.52588576765900    0.55416780290233
C           0.15247587002721    3.58731840132120   -0.06581188314835
S           0.68283139318312    5.24105050096453    0.07692216993183
C          -0.60724839029436    5.82804310538006   -0.93983514709616
C          -1.44325417547766    4.78469138736815   -1.29345421417884
C          -1.00981827665930    3.53064084942286   -0.80588838130407
C          -2.00423895313262    2.48568983103763   -1.09442795280559
O          -2.04286473972355    1.35686815640896   -0.68036491322841
C          -3.04141910207093    3.15536619113762   -1.98324051301114
C          -2.78024877570364    4.65038583393444   -1.89027353483707
O          -3.55898468367477    5.52485674882811   -2.17162273432296
C          -0.60840419703107    7.22373629902669   -1.24966984896994
N          -0.90675228079368    7.80295603344031   -2.45543529864459
C          -1.17455703465562    7.14244817844710   -3.71509804411636
C          -2.55215409801125    7.49774982635699   -4.26270427988180
C          -0.71580885931633    9.20154432877869   -2.41110908079797
O          -0.85125889624957    9.92826776804078   -3.37508852570276
C          -0.31152773226461    9.47256395025651   -1.05063077427345
C          -0.22743205706362    8.23057512564838   -0.37508352037106
C           0.18154742321976    8.48192150080327    0.99217241639150
O           0.39314313143691    7.73581415669208    1.92312154300965
N           0.31338297731596    9.88075303944384    1.05410998177010
C           0.76217266023626   10.53661198416713    2.26020397662304
C           2.25276441536371   10.85994162376986    2.21130388687253
C           0.04267865607721   10.48069640309740   -0.15314122665656
C           0.15035325943088   11.87582628808407   -0.37082122143895
C          -0.08807375524892   12.44062740008498   -1.58439898695847
C           0.06089863480642   13.81995632885199   -1.86675465459198
S          -0.29378959851365   14.36392160190321   -3.48763599308241
C           0.17631500982115   16.00768507682137   -3.14182758592756
C           0.54053747414533   16.11327443291263   -1.81519891654211
C           0.48876872301837   14.89938697468743   -1.09543016905086
C           0.91284033411027   15.12562665060587    0.28979408559789
O           0.95339046448188   14.33756254569281    1.20548303387139
C           1.30638398131111   16.59025191775122    0.37992104921305
C           0.87032858008422   17.23688875421912   -0.92314710109766
O           0.75402812067193   18.41587021064944   -1.13234952702777
C           0.14252506473392   17.01436632349605   -4.14580738222434
C           1.02878072018004   18.04066936466981   -4.23027725842805
C           0.95470473890379   19.16941696985967   -5.14202966760636
C          -0.15784686354276   19.57663347482264   -5.82852415639453
C          -0.19421524020622   20.70688674417470   -6.67252958542431
N          -0.28217361253756   21.60757558526501   -7.37843068453111
C          -1.41756636446524   18.94329814820327   -5.76830006683397
N          -2.46967711060442   18.48426003349328   -5.75963278544218
C           2.24352324200966   19.84635825407882   -5.12009100213890
C           3.08457310020360   19.19150605138485   -4.17509412076389
C           2.36469787759534   18.06816675444037   -3.55982841207962
O           2.80885094733755   17.28318891723679   -2.75052110929392
C           4.36222020792191   19.61035013213030   -3.93441890646798
C           4.86538176424555   20.72628367711340   -4.63854452949639
C           4.03195362787803   21.38409091667760   -5.58958134705613
C           2.71441544658109   20.92632449657069   -5.81951545041492
C           4.54710204572368   22.49344387774685   -6.29060739041057
C           5.82260505770065   22.93413823036843   -6.06376542350567
C           6.64182226201284   22.28637161373815   -5.12681678279187
C           6.17320413379609   21.20656742232573   -4.42878423815544
H           0.88421744911306   -0.77559152154761   -3.65976817753786
H           2.73265783742436   -2.56157664763470    0.61251956135453
H           3.29079787836357   -4.63735304277666   -0.49633260760511
H           3.33519210518201   -6.03826906256781   -2.52105725046458
H           2.42462092806344   -5.18402975287260   -4.64399113517690
H           1.46158328178159   -2.91951019949764   -4.75982198466378
H           1.34474354173732    2.76364609437564    1.49963239547971
H          -4.06390436063831    2.89061361199231   -1.71159895297425
H          -2.88141744145772    2.82560820983622   -3.01342716172466
H          -1.07906249424962    6.06526603842305   -3.56881874814766
H          -0.40880160241498    7.47341896683606   -4.42637366700434
H          -3.32840688048794    7.17934736427775   -3.57339744775438
H          -2.70085916089584    6.99808912686944   -5.21592900317496
H          -2.62254177519676    8.57094699668651   -4.41344311594313
H           0.56514105711157    9.83518729807695    3.07559562217605
H           0.17843136312026   11.44578240857153    2.42148460235808
H           2.82858744597824    9.94951199572735    2.06270134472099
H           2.55576680705362   11.31570569693518    3.14930458347697
H           2.47370234599652   11.55292710497972    1.40326263652970
H           0.44693691556410   12.49757460544912    0.46073172820802
H          -0.39856786911193   11.81766489005059   -2.41409995361359
H           2.39449168068424   16.66419348815345    0.45979252849576
H           0.88510541200970   17.08255129962492    1.25755489506841
H          -0.63232142167283   16.91023787617895   -4.89518074102506
H           4.97963867957092   19.09747933497307   -3.21195088375167
H           2.11075630265139   21.44035601844127   -6.55065800485090
H           3.91240604107520   22.99012004165053   -7.00962534989567
H           6.20760751239999   23.78521753356576   -6.60509753022861
H           7.64586421625044   22.64718946654486   -4.96120801598379
H           6.79906705999375   20.70387498996057   -3.70604084940227
