113
 SCF done       -212.456889942519          0.000477147112
C           7.55876146302628    4.03191340208234   -1.43055742519421
C           8.51670892377952    4.73759280849015   -2.10752996512126
C           9.89120469353040    4.41746286200392   -2.09842250609830
N          11.01898733053200    4.20829882555801   -2.13507728164395
C           8.25068541920301    5.84447175088185   -2.94042995628643
N           8.08136871529638    6.73532577066559   -3.64501396607196
C           7.77568065286697    2.83970355704571   -0.62355761096360
C           6.51228989554436    2.30727053461839   -0.23100127281295
C           6.41141114105977    1.18266634117421    0.53629461438984
C           7.59009865975383    0.52808870418447    0.95727476738981
C           8.85729932810427    1.05385442751572    0.56969543967930
C           8.93151378812505    2.21936704843601   -0.22534305669900
C          10.02657747154580    0.38838994773977    0.99223021264333
C           9.95018455084891   -0.74142017015894    1.76004773430324
C           8.70240835209370   -1.25704103898927    2.14247034669559
C           7.54789663836864   -0.63577984472543    1.75008123769419
C           5.43700730503903    3.13894588210160   -0.78781966814089
O           4.25264992395591    2.89860775014127   -0.82818159679406
C           6.13158239664617    4.31127173788927   -1.40780821791657
C           5.49306001838711    5.43029325676195   -1.81148206405692
C           4.09898282647873    5.70215099826135   -1.60208951418225
C           3.35921770265313    5.64873130402368   -0.43671375755797
N           3.78316758448517    5.28096715698908    0.85556616855833
O           2.94786769144427    5.30164025938187    1.73997307833111
O           4.95634633015621    4.99278947219246    1.03335017969090
C           2.02334057690132    6.13152880272808   -0.69470665154029
C           1.94939091569061    6.52685371707848   -1.98730088571915
C           3.22409539785449    6.29170034380235   -2.61809027123499
C           3.54409250975399    6.43226635092489   -3.95328329633564
C           4.52153652428931    5.66898947631664   -4.65500846777144
C           4.33875886941852    5.83409069336343   -5.99963580993855
C           3.28598200614889    6.76821938874118   -6.21583360177445
N           2.87566586189785    7.16075486644199   -7.49575792856942
O           1.94115718658606    7.94882157418213   -7.60744182136459
O           3.46303528185953    6.67784670513229   -8.44833386955796
C           2.80909526248354    7.21745648987152   -4.96913340754645
C           1.95345353295665    8.30230079352164   -4.79793275353480
C           1.73768317943021    9.04588352922710   -3.65626181753141
C           0.82865471397023   10.09861027807811   -3.58776431405214
S           0.68475943055093   10.97960860541264   -2.07631451825938
C          -0.56326384781900   12.02988060020422   -2.69005071802930
C          -0.83127003047644   11.69691225280772   -4.01706050053111
C          -0.07341672256611   10.62385390318739   -4.54104908354478
C          -0.41218807882919   10.36222963263162   -5.89094991424919
C          -1.37576269116313   11.19928151811378   -6.36685426989362
C          -1.96461558989851   11.21350306991273   -7.72547550864637
S          -1.92848328209217   12.35156642534396   -5.17785986089536
C          -1.16485787486246   13.02673146040169   -1.90419520628039
C          -2.17769254648205   13.89040980499901   -2.29528503349471
C          -2.51489469347643   14.73147581372694   -1.21022159259662
C          -1.63003765873853   14.34086712793341   -0.09636146442619
C          -0.83384398265612   13.32524462103776   -0.52144786196963
C          -1.60155353385978   14.90770626237677    1.18359129515122
N          -1.55703925527356   15.35595327462691    2.23974648573491
C          -3.48980951783984   15.71228233791581   -1.19338828892063
C          -3.86442038587607   16.55765737261835   -0.11998817415255
C          -4.90104545961881   17.38242342868347   -0.52513497964925
C          -5.20377620338019   17.06203374958159   -1.91531184002077
C          -4.37076100032444   16.07100630151692   -2.32407891598222
C          -4.37156015989496   15.50381305850358   -3.60356215181975
N          -4.39594837324777   15.05610664984147   -4.66162543401569
C          -5.55455619307095   18.35020099246903    0.26888081576464
C          -6.58965973413169   19.12818802512011   -0.16384499961814
C          -7.22252589531780   20.06945078375075    0.67458433812859
C          -8.27276877240132   20.85998867089559    0.29331080475588
C          -8.97381053993666   21.83410778478073    1.10917305694703
C          -8.71799908726176   22.14835920422106    2.41990870313818
C          -9.44353365147597   23.10665485222832    3.15938181524014
N          -9.99031380471734   23.87029853430870    3.81938559972577
C          -7.71101744983495   21.57642191918854    3.22522845640441
N          -6.91834577244272   21.16316660966930    3.94623576654852
C         -10.02081186970014   22.43304762038982    0.28820310816207
C          -9.97503722567239   21.84719068570772   -1.00922582797256
C          -8.89489300086425   20.85074531080048   -1.06061914597356
O          -8.58376528002307   20.16866230537755   -2.01522421374356
C         -10.84219518364751   22.21195753676808   -1.99894305528109
C         -11.81648682175842   23.19903518976433   -1.73189555215322
C         -11.86996128377907   23.79078195416785   -0.43657959540789
C         -10.95759246223615   23.39310049940408    0.56763210021189
C         -12.84647324843740   24.77448069663824   -0.17958096699916
C         -13.72853398131272   25.15621849369887   -1.15374614094676
C         -13.67478364442790   24.57302639046762   -2.42861921275889
C         -12.73900595793099   23.61523385342350   -2.71177138139807
H           5.44312087251989    0.80045699346737    0.82289735001493
H           9.90474686939503    2.59721562535373   -0.49685159565492
H          10.98472431046123    0.78897822606975    0.69530416216647
H          10.85114597076133   -1.24446077292265    2.07775608252694
H           8.66104185606517   -2.14900231519265    2.74952040757972
H           6.58468618145126   -1.02798906540018    2.04157345720878
H           6.04024881859223    6.21161456239439   -2.32535938472249
H           1.24980929066895    6.14560765633581    0.04875083055886
H           1.06986874449487    6.85649404868924   -2.50507827334649
H           5.19956477305789    4.97654749264880   -4.19654025492025
H           4.87687340800040    5.34874083043064   -6.79218500460780
H           1.47552810997094    8.63671124146298   -5.70481670835333
H           2.31175058877718    8.84291426893198   -2.76229110839353
H           0.02290997701821    9.60268226284755   -6.51356029741113
H          -1.48166214240489   10.46772595182975   -8.35147878848222
H          -1.84447455455147   12.19508166916157   -8.18276888026754
H          -3.03305460057614   11.00271973716738   -7.68019400421364
H          -2.64223083812037   13.92193951734211   -3.25935836528429
H          -0.08031174374847   12.81458850199088    0.04939263976337
H          -3.41482021295877   16.55155315619957    0.85387037020155
H          -5.96061550002886   17.53456963010440   -2.51228613784636
H          -5.19967620235284   18.46029940384229    1.28693396007454
H          -6.95782927435619   19.03378300622672   -1.17390308430661
H          -6.84132843131593   20.15261309454598    1.68435813934407
H         -10.78515784992177   21.75105597812527   -2.97395511185575
H         -11.02615336146179   23.86186644378959    1.53617644559553
H         -12.88417776182120   25.22066331865557    0.80332116626692
H         -14.47312828817947   25.91015770780053   -0.94701235702516
H         -14.37851832946360   24.88637276878076   -3.18511205271301
H         -12.69276898473351   23.16262812171738   -3.69145156268692
