125
 SCF done       -227.781171713840          0.000805628930
C           3.31332073219393    1.57279374391459   -6.05333918310178
C           4.59446703419410    1.37492807254660   -6.48355022799993
C           5.18258347071513    0.10532158734360   -6.66886324788485
N           5.70859678932890   -0.90097555698888   -6.83270201799014
C           5.49700085095290    2.42769317225411   -6.74846458031350
N           6.26887604080012    3.25630319676238   -6.93284465473103
C           2.35235287860412    0.54825365876422   -5.66769664411721
C           1.17860389750408    1.17670620017394   -5.15105396691431
C           0.11073421706674    0.45073975344858   -4.70459977096878
C           0.16352448921203   -0.95939757032185   -4.76119846003589
C           1.32811260493336   -1.59429754628541   -5.28400739089927
C           2.42062763113993   -0.81888048041494   -5.73392148283477
C           1.36461619576284   -3.00238684432786   -5.34388701871168
C           0.30367537695704   -3.74898426848781   -4.90832727071307
C          -0.84121858955076   -3.12317559503972   -4.39226281696391
C          -0.90988086446318   -1.75820473530966   -4.31982612427322
C           1.33561579438701    2.63295877426727   -5.22371135057960
O           0.56590111492479    3.50432313822329   -4.87826564779689
C           2.66535927720141    2.85861487728881   -5.85011541633744
C           3.03634551443133    4.09900191886761   -6.22823061655339
C           2.16737269224317    5.24018871034816   -6.01677335145507
C           1.37206719206753    5.74872365481438   -7.00763331865038
N           1.32052170516318    5.21469466393753   -8.30401709032762
O           0.56614656728482    5.71815818868381   -9.11068333967478
O           2.05398664474610    4.26020594207119   -8.53755554879176
C           0.54570468630024    6.81555650966029   -6.47898726949588
C           0.84611473807355    6.97160233475661   -5.17267872811546
C           1.89952424355993    6.04429266767347   -4.80700358675604
C           2.58358171023004    5.90217546760546   -3.62661735369441
C           3.57692850405317    4.89612937336133   -3.35597791947628
C           3.84190015694182    4.88417721746322   -2.03050315503535
C           3.05330499613326    5.90345366547411   -1.38242792783500
N           3.24842229860537    6.16682906805929   -0.01571388880831
O           2.49518842572012    6.93206170461155    0.56988882479961
O           4.18359327675510    5.60342750050842    0.52616791007277
C           2.31715321017569    6.59596996629859   -2.34188686098626
C           1.57946374923009    7.79821496168813   -2.25272832086516
C           0.85462172860462    8.25588012766659   -1.18930036695959
C           0.20833737151602    9.49671898972657   -1.23744845414242
C          -0.47128478724541   10.19045880365322   -0.27408147383822
C          -0.48177316499820    9.72655104612528    1.15150930324584
C           0.91276884576251    9.80385639251060    1.78593660050984
C          -1.13516042747278   11.39373578288262   -0.72118204496903
C          -1.79695652564134   12.33199336863450    0.24606936379486
C          -0.75288311179397   13.15678367118094    1.00502924624164
C          -1.01934596804959   11.65758945852019   -2.05524652280411
S           0.10535626090220   10.43396004299239   -2.77152509955143
O           1.35167923692829   11.05369112945831   -3.12799524075045
O          -0.55264670579434    9.66246862299395   -3.79289050851938
C          -1.49764703197689   12.62620282321915   -2.95402571590318
C          -2.67987655477676   13.30475072569357   -2.90197699885678
C          -3.10462692235388   14.25877669909034   -3.85383179309573
C          -4.31994316865741   14.91827950004045   -3.83113469607923
C          -4.38080379799389   15.83814986836858   -4.91080417987205
C          -3.09894576715586   15.69958390161828   -5.63198869086592
C          -2.35442216054344   14.75634404984562   -5.00102229731801
C          -2.70933532814250   16.38906162178460   -6.78726152941562
N          -2.35914058478851   16.93539311800816   -7.73441728419144
C          -5.41461162828466   16.69411627423372   -5.22578971501385
C          -5.45576509896494   17.68074526195849   -6.24914214414771
C          -6.68278006446669   18.31641224589798   -6.21757456014226
C          -7.46754882387533   17.71248753498742   -5.14777290473861
C          -6.72080465041449   16.75789776374237   -4.53794238598636
C          -7.14416411845716   15.97928366026770   -3.45544545766303
N          -7.52152510145178   15.36271185269572   -2.56241273390638
C          -7.17236482509180   19.37663908185021   -7.01739002983402
C          -6.44544685075727   20.07998222069229   -7.93162005307533
C          -7.02963584412305   21.14123872672397   -8.65832779412165
C          -6.36584192444242   21.96251364750854   -9.52570465922917
C          -6.93028068445278   23.06149076287170  -10.28738771880405
C          -8.24988890177671   23.43358321749370  -10.34270134780179
C          -8.73598353921613   24.51421901908125  -11.10912371195844
N          -9.19843135715205   25.37771544767740  -11.70764693619545
C          -9.31385975858645   22.80592071656089   -9.66236052731787
N         -10.23363505933300   22.35155544407036   -9.14529080631856
C          -5.84070785078220   23.70748059712510  -11.01051102537298
C          -4.62974146535468   23.01120228081531  -10.73144422292715
C          -4.90320314702111   21.89893954863629   -9.80687620778613
O          -4.09913909516006   21.11143028121076   -9.35822858086338
C          -3.43550848159505   23.39283308585316  -11.27190410752827
C          -3.39470448760957   24.51403302664074  -12.13036782105725
C          -4.60070500088375   25.21907982545208  -12.41205854997358
C          -5.82300927006651   24.79764892651755  -11.84066211806597
C          -4.54874508712967   26.34013600254260  -13.26539712742477
C          -3.36331089857854   26.74697015850990  -13.81460564675976
C          -2.17670119539488   26.05169594461658  -13.53717286012031
C          -2.19197489561555   24.95865458205080  -12.71355494608767
H          -0.76651154071511    0.94779985873873   -4.31779745159203
H           3.28647102085334   -1.32673516027549   -6.12880544411674
H           2.24797889480144   -3.47975919641925   -5.74154410678421
H           0.34056703523311   -4.82667744099982   -4.95952050172667
H          -1.66880045784328   -3.72797952263443   -4.05336213086076
H          -1.78904674619474   -1.27083694762409   -3.92464990527131
H           3.95312831944977    4.27451586678270   -6.77859156608260
H          -0.18371893622528    7.34775001750099   -7.05800255813675
H           0.36450096556261    7.67178670241194   -4.52046626972260
H           4.01884539912123    4.25950920736068   -4.09575134665848
H           4.52667244334723    4.24944178043931   -1.50046913012309
H           1.61136502991928    8.42731641028282   -3.13181521412840
H           0.73341768894553    7.64745019905455   -0.30547368667108
H          -0.81351351542004    8.68596132746790    1.17816626679168
H          -1.18028876769239   10.31613485725238    1.74190938484443
H           1.58508286327814    9.07698513466062    1.34122895523621
H           0.83871191792217    9.59377718243039    2.84970257662744
H           1.34391076138192   10.79361415651614    1.65713396068463
H          -2.41441274832760   11.77420765532674    0.95179849815796
H          -2.44346937477159   13.01832273867796   -0.29457330935228
H          -0.11119413890831   12.52552635833567    1.61118809154248
H          -1.25204761145763   13.86883907161896    1.65730032380133
H          -0.13194360981821   13.70719627335340    0.30225175675852
H          -0.86080029488525   12.74873489522104   -3.82209681330668
H          -3.38403884896417   13.09964014785130   -2.10701133678224
H          -5.09448173175718   14.77247892108435   -3.10416572051961
H          -1.37500457852213   14.42822421473590   -5.29379228979197
H          -4.65154762883973   17.88732297925500   -6.92726755397956
H          -8.47113368382320   17.99949981833150   -4.89216741546676
H          -8.20816452845820   19.65538010628679   -6.85673290531999
H          -5.40409272561975   19.85199023008856   -8.10194217304589
H          -8.08607713877200   21.30975464467039   -8.48997462927692
H          -2.53265984816510   22.84585791228963  -11.04425195977413
H          -6.71631929859337   25.35463670833353  -12.07387733455247
H          -5.46503529920680   26.87177539459945  -13.47631539316017
H          -3.33348731710799   27.60736318202311  -14.46616244112947
H          -1.25039185394371   26.38678530589168  -13.97923283761901
H          -1.28161169749760   24.41947502721757  -12.49642248913481
