112
 SCF done       -208.336616433837          0.000565620404
C          -0.93926188679505    0.12180594881070   -0.57212551443364
C          -1.77970036099848   -0.49990230710884    0.31689093041747
C          -2.09721743114926   -1.87396551416147    0.27365030751654
N          -2.39572191260108   -2.98206961268629    0.29517083256491
C          -2.44876132636285    0.12647627239308    1.38822088367372
N          -3.02659801545930    0.57669317777865    2.27361489482753
C          -0.26457439887175   -0.52786716740259   -1.69192812752421
C           0.50791130759960    0.44898635438357   -2.38563936764521
C           1.24929404488634    0.13740883344890   -3.48881842145164
C           1.25256668775713   -1.19430688749326   -3.96065292053083
C           0.48349682776462   -2.17793213404178   -3.27416397421787
C          -0.27382705333743   -1.82394443355034   -2.13283801273310
C           0.49189468471788   -3.50266691000224   -3.75442340381854
C           1.22430968921670   -3.84175908810797   -4.86011799921701
C           1.98139151849226   -2.87282455672475   -5.53469042299524
C           1.99557085290991   -1.57668905623215   -5.09433055312698
C           0.34814365567756    1.74495587868283   -1.71880299831096
O           0.86565393503776    2.80421841841192   -2.04387915194555
C          -0.55936825281773    1.52164913335252   -0.59010621449774
C          -0.99246128974005    2.48458699129594    0.28968228027834
C          -0.70201628697104    3.84954665926707    0.35228424995393
S           0.39442604225768    4.71451631242840   -0.68099459608228
C           0.11516740278175    6.20832025587092    0.13933828978595
C          -0.85784640238850    6.07257799823809    1.15289061218087
C          -1.29778491464930    4.72740672678988    1.29898869828736
C          -2.23751775360562    4.41170925340363    2.29082713579044
C          -2.74605243156338    5.41772785033330    3.08640090652452
C          -3.68455964798710    5.11596891059641    4.10218625839622
N          -4.44563232360108    4.87372910280844    4.92286973057627
C          -2.37211294900295    6.77430158532098    2.87288306732250
C          -2.95791990470966    7.80446102216465    3.64500011090480
N          -3.41584879026552    8.66255706074141    4.24990962769895
C          -1.44982390822953    7.09693202713693    1.90281417839566
C           0.86031315716279    7.38831448353908   -0.09868838114494
N           1.40030622875574    7.78266932511999   -1.29790905818268
C           1.22557632582132    7.15094510282867   -2.58471082505251
C          -0.20455847022393    7.28417613403069   -3.09830638530540
C           2.07254916320308    9.02047356000063   -1.18730760032854
O           2.59647390652484    9.58711786281552   -2.12135075099003
C           1.96966321410201    9.35155778515852    0.21559928864875
C           1.22225439239103    8.34303779623743    0.85702643188208
C           1.24669005333021    8.62183202040048    2.27995406370040
O           0.81614386965090    8.01002125115978    3.23474830778264
N           1.95657447925601    9.83372591975642    2.39157483251958
C           2.12408867413280   10.43075593080635    3.69548361029264
C           1.05154230391084   11.47986472282975    3.98211952344603
C           2.38873637492955   10.28944587762705    1.16540252675744
C           3.08790518723917   11.46050215944936    0.81129865461384
C           3.44165052060419   12.53542587606302    1.57504984727828
C           4.07295407830767   13.67958798032015    1.05697834241899
S           4.48011820137378   13.84685289657543   -0.61741693460466
C           5.00930877284190   15.48677660769156   -0.42261766079760
C           4.97248242195205   15.86290707684243    0.93247547467591
C           4.42118338033735   14.84935919981405    1.77099621617579
C           4.27952963918728   15.08451527231443    3.14566528104244
C           4.70768070341827   16.28148933803577    3.67676785335369
C           4.55792226578612   16.53027087895803    5.06089456098455
N           4.42611855762476   16.70779734000678    6.18492756835364
C           5.33278035171880   17.25965192249527    2.84905581875753
C           5.81842460000050   18.45566126829262    3.42764868724837
N           6.21825946759419   19.42998846854656    3.87806975487971
C           5.47379643641432   17.04593892415296    1.49738855431231
C           5.39078264265112   16.22806498043549   -1.55962478016404
C           5.19635567361662   17.57018396046039   -1.74467688784950
C           5.68886024436202   18.35247326008530   -2.86101617864555
C           6.72619994424249   18.00445088763089   -3.68735473200220
C           7.19136496231348   18.80704064542578   -4.74927453043546
N           7.60324489425656   19.41358334231098   -5.63240930278380
C           7.48362373933367   16.82212815241194   -3.55411157712981
N           8.14756239079345   15.88838477050331   -3.47730669747740
C           4.95353395974653   19.60961553164890   -2.88429463079300
C           4.06740815129016   19.63490640424236   -1.76865581982447
C           4.19851340723745   18.38734459306689   -1.00220784629385
O           3.55835766284271   18.06311155629743   -0.02226613164715
C           3.24391489819064   20.69626544616736   -1.52491436111792
C           3.27082920051332   21.80314017869075   -2.40241665486496
C           4.15036018534928   21.78344439681439   -3.52378902994763
C           4.99140033607043   20.66926719136761   -3.75074563746793
C           4.16295419470080   22.89071351545644   -4.39558940449157
C           3.34790298659666   23.96727823339270   -4.17160174601078
C           2.48352685466305   23.98597905057519   -3.06700672157272
C           2.44631408969075   22.92708929722273   -2.20041881120993
H           1.82582238020709    0.89688858956469   -3.99585951714854
H          -0.84415892053778   -2.59332836211973   -1.63758666717056
H          -0.09245236546656   -4.24557952657362   -3.23180721151626
H           1.22369224504231   -4.85939512446409   -5.22048837505482
H           2.55332240564427   -3.15765272828465   -6.40494460645174
H           2.57675204542333   -0.82612258418390   -5.60978509092367
H          -1.67502574717813    2.15288004876533    1.05928279882863
H          -2.57704884983773    3.39864716952631    2.44749542152645
H          -1.20797865951875    8.12863929609909    1.71048257121240
H           1.51866350573131    6.09951834929390   -2.52679602681263
H           1.91081166970830    7.67160589134856   -3.25993923847354
H          -0.90805974614609    6.79134911049906   -2.43092420847792
H          -0.28199382529756    6.82663484767065   -4.08005311159204
H          -0.47824655256659    8.33350396761747   -3.18018000655053
H           3.13297012123495   10.84088830662553    3.78058216019776
H           2.02141290561801    9.61246044161161    4.41488283546856
H           1.03632377103985   12.25367551226980    3.21709618105142
H           1.23468541368655   11.94096176263225    4.94879176426207
H           0.07336269194654   11.00598490289261    4.00891292418509
H           3.32605316116868   11.49431398239813   -0.24609352142508
H           3.21427199694128   12.56769358311788    2.62815906386545
H           3.84559782813825   14.34054500654704    3.79623683620818
H           5.98173002190375   17.77445844369182    0.88552594896059
H           5.79932502028168   15.64850603498337   -2.37939533733448
H           2.58236121373591   20.69200614286849   -0.67137951212871
H           5.64108587277583   20.67975641970161   -4.61167101423087
H           4.83115077047441   22.87280743387416   -5.24398366004742
H           3.36550539931329   24.81094864963677   -4.84497447504140
H           1.84716087446100   24.84308641509678   -2.90577908186623
H           1.78317526844650   22.93556153490505   -1.34788528107652
