119
 SCF done       -227.542093233707          0.000928894203
C           2.35537321711146    9.32882709751558   -4.96800905939447
C           2.15498841791419   10.41176886939961   -5.77330872517181
C           3.20023384880371   11.21193762884462   -6.28728076926505
N           4.00507754398041   11.89882467823561   -6.73028200708374
C           0.89318883719929   10.88803728462814   -6.19589818448167
N          -0.08909236360195   11.32602526385723   -6.59447801804524
C           3.64239357588116    8.79152112923922   -4.54785362778245
C           3.42370450631493    7.75169639408181   -3.59660065181245
C           4.45616576241488    7.03696638970941   -3.05492192769573
C           5.77780527481256    7.32502564028295   -3.45488383285608
C           6.00674195644647    8.35839771964722   -4.41157950518130
C           4.92056340366524    9.08776670873332   -4.94675510489610
C           7.33163770321710    8.62816975957045   -4.81261275648328
C           8.38209969438448    7.91906191509393   -4.29507374171512
C           8.15301633003966    6.90898127342704   -3.34702656879848
C           6.88057062704889    6.61638204045870   -2.93698262111196
C           1.98747711398488    7.58134618177146   -3.37899489260302
O           1.43933404738301    6.88007583028586   -2.55493520559266
C           1.32273125955315    8.47180253652321   -4.38749372889927
C           0.03048777743810    8.37046098750341   -4.74691354895511
C          -0.84425220449186    7.31233212937170   -4.26235362753699
C          -0.46279408326666    5.96710574758411   -4.25578898867809
C           0.80579235292900    5.36019314758865   -4.72154504280043
O           1.66694334317438    5.84665462658899   -5.41002188740049
N           0.79407172048858    4.04918778415552   -4.24248439174567
C          -0.45954130911015    3.70401057334796   -3.69291068749084
O          -0.75137799855985    2.61980458465709   -3.28078327907814
C          -1.25675892026970    4.95743866546393   -3.71314797805481
C          -2.52774483091906    5.20228093090271   -3.21187513253678
C          -2.94254464419330    6.52239957431637   -3.27292686257554
C          -2.12507204291470    7.54558546522081   -3.76403157394533
C          -2.84077451132833    8.83904554468024   -3.59956271766110
O          -2.47308866900666    9.95066585935685   -3.86067154254039
N          -4.06692717335491    8.49461008966708   -3.05242657277887
C          -4.22302380934820    7.13781379499427   -2.81650730312336
O          -5.19366277226050    6.61546512234274   -2.34534831788573
C           1.88696972992247    3.20136049002702   -4.18107373972156
C           3.14463981974734    3.63099374448284   -4.38461293077010
C           4.31679477789377    2.84016974431172   -4.23404213162491
S           5.85880602884977    3.65598912738152   -4.37743360280705
C           4.52592904864132    1.50823046972503   -3.95098561670358
C           3.72515533692659    0.29313696513233   -3.72523170963996
O           2.52892728558459    0.13900715691292   -3.71920190579919
N           4.65706392999904   -0.71245910543560   -3.49507152372636
C           4.28374722254477   -2.09173463510879   -3.26117545299504
C           4.16953979066439   -2.86244314634007   -4.57156227498609
C           5.97815929369063   -0.28309731358988   -3.54941603730651
O           6.94650503925679   -0.98022133495677   -3.37524308056929
C           5.88841011946679    1.15506614533963   -3.84555155417613
C           6.77320884637866    2.19406005687993   -4.03811532382974
C           8.18487962882788    2.16441081649130   -3.97939352040073
C           8.96046661639330    3.25673147604828   -4.20101685320908
C          10.37466028368644    3.28603164732899   -4.16033155961390
C          11.15960981829498    4.38430744288587   -4.44269800924605
C          12.53116185202356    4.02685642025143   -4.33290392717231
C          12.54705339627265    2.60441877423568   -3.93100663770688
C          11.26318257434257    2.17622588420172   -3.83358290741793
C          13.67749549292057    1.81818633617025   -3.67876898094367
N          14.58498315461048    1.14744170802991   -3.46605177601933
C          13.62926541659046    4.81551531956661   -4.59178877299387
C          15.00052211176326    4.43416893816334   -4.58041869077214
C          15.77561872446435    5.49867628229082   -4.99467946114788
C          14.88449116461152    6.62280702944304   -5.25381115080065
C          13.60714023197296    6.23146344903631   -5.00839355718579
C          12.48168308243333    7.05386906115445   -5.11014397234161
N          11.57340022489233    7.75384109855823   -5.18733335191498
C          17.18180575988341    5.48641694405371   -5.15995604633954
C          17.90397409955722    6.50607715173979   -5.70219659505791
C          19.30354898171408    6.42058034426212   -5.87461440552402
C          20.06683835378320    7.37369803791137   -6.48859914201817
C          21.50135889919640    7.33281745243724   -6.70874633799393
C          22.38468556877987    6.41403710747168   -6.20289854586537
C          23.77470542629850    6.43793081035446   -6.44502349520547
N          24.91101976323439    6.39758282939496   -6.60286197291343
C          22.05346309413975    5.33439637864828   -5.35749038555028
N          21.86787287995200    4.43967507183940   -4.66191264300975
C          21.85579382187165    8.47458225950548   -7.54441229351753
C          20.68259343504596    9.24564807174497   -7.78508460818581
C          19.53335721975666    8.61323309338770   -7.11930342963290
O          18.39052713985610    9.02136479042935   -7.10307188868854
C          20.70662922965754   10.38114911692019   -8.54293132064758
C          21.92855229950675   10.80430365112935   -9.11115677238285
C          23.10671990113091   10.03706009708866   -8.87856874813773
C          23.05130359117550    8.86752844396231   -8.08623444836680
C          24.32031560743603   10.46556876898241   -9.45386606055623
C          24.36944519406401   11.59651449964466  -10.22268808999664
C          23.20878382714708   12.35079976670382  -10.45129455760053
C          22.01431845857864   11.96355716062671   -9.90687732335071
H           4.26200350903639    6.25336184981548   -2.33686920963143
H           5.12655162649799    9.85827421888526   -5.67293607396257
H           7.50285186321120    9.40965844611668   -5.53780986709105
H           9.39250801289108    8.12999533534093   -4.61067678668448
H           8.99347601485738    6.36748985555225   -2.93778808779680
H           6.70033997137890    5.84090665194847   -2.20668757520969
H          -0.41594973012413    9.07340677597804   -5.43784324506579
H          -3.14253746802821    4.42301006969560   -2.79136795593146
H          -4.77934885672899    9.17602837086642   -2.83091015819031
H           1.64377964000696    2.18499212976901   -3.89482982815055
H           3.32590730131711    4.66092960273613   -4.65571617296745
H           3.32467067562673   -2.08677126374992   -2.73801165181089
H           5.05386716311190   -2.53379437579777   -2.62472857296898
H           3.40967525478642   -2.41312300178465   -5.20685162557330
H           3.89063917573631   -3.89222899995105   -4.36824649489985
H           5.12180999633828   -2.85507057118914   -5.09711127561291
H           8.61392275974809    1.19958387592352   -3.74641748385108
H           8.47282550113317    4.19496306772908   -4.44230545803631
H          10.79808524654009    5.35201863121907   -4.72973407242505
H          10.94657912493684    1.18787069555422   -3.55838092019550
H          15.36367354660242    3.45969598603019   -4.31827428559022
H          15.19436909862810    7.60016011482819   -5.57274241748929
H          17.69285123845256    4.58261056133147   -4.84937952759622
H          17.41395023444727    7.40725038100672   -6.03761800060102
H          19.78145349704328    5.52118138680209   -5.50711499844222
H          19.80227244130097   10.94752457111701   -8.70933201076766
H          23.96041630753734    8.30818957864756   -7.93336566776531
H          25.21133767291925    9.88193040238146   -9.27475827715351
H          25.30361747320901   11.91616744689421  -10.65945550467491
H          23.26580202430462   13.23996352175653  -11.06109979072309
H          21.11733410797230   12.54012382117934  -10.07942749535087
