106
 SCF done       -205.623409859265          0.000567021347
C          -1.30252082628402    0.57807955576164   -3.27821722378168
C          -2.46480650889997    1.21369419804157   -3.62902216606441
C          -3.02414123187323    1.17507514906546   -4.92311925932105
N          -3.51424826324392    1.21179296451216   -5.96070470154104
C          -3.27683903098975    1.95642494670593   -2.75146835848175
N          -3.99163154897825    2.57097654715020   -2.09476689843301
C          -0.58944245191749   -0.37848209902560   -4.11710063553301
C           0.27897528579164   -1.15199223044191   -3.29198061387028
C           1.03962346124727   -2.16550571164013   -3.79954740463165
C           0.97152050543269   -2.45311365210180   -5.18140857756260
C           0.12215474124992   -1.67016217078703   -6.01601700236919
C          -0.65603507007575   -0.62804741534085   -5.46199949381107
C           0.06688715631826   -1.96341643356840   -7.39390547521314
C           0.80884939464167   -2.98422737249510   -7.92274040013441
C           1.64257332937491   -3.75615983271468   -7.09974801046213
C           1.72265305148501   -3.49583456780455   -5.75851279097540
C           0.19291405284068   -0.66547835982089   -1.90469441630054
O           0.74199014028167   -1.10426046977182   -0.92276089883345
C          -0.69000432507561    0.54189409561886   -1.96618500759317
C          -0.71201154119454    1.38789666050332   -0.90660557200360
C          -1.22001030444183    2.71905954304639   -0.82116972317058
C          -1.67362036234928    3.21865373142618    0.41870866510921
C          -2.30382061566045    4.49752042278297    0.53244613811386
N          -2.90384423187439    4.84433674726412    1.69244156227548
C          -2.76998698427863    4.07366828807324    2.71636829506359
C          -2.02612686297640    2.85905805865778    2.63813567724679
N          -1.54469364252426    2.43853586346393    1.51743215955735
F          -1.84446295700436    2.10559808332494    3.71525883703497
F          -3.38629050233239    4.41923317200484    3.84099460891573
C          -2.39190608313682    5.38894520425158   -0.55843702522226
C          -1.83683984262650    4.94546498291350   -1.76972704550099
C          -1.26798567176868    3.62196276946508   -1.90191144940461
N          -0.77434571770036    3.41996817516137   -3.12636364549340
S          -0.99264573833875    4.74294746130016   -4.00635324640088
N          -1.71725618712909    5.64401426586808   -2.90174453236539
C          -2.97170828482423    6.68279065322478   -0.32838105861642
N          -3.85797864903138    7.34519838132668   -1.12471235558114
C          -4.48186052563173    6.87594100424776   -2.34203886648837
C          -3.99663830929109    7.66463235268255   -3.55393157745142
C          -4.28387601667082    8.55325973971727   -0.53024553549753
O          -5.10293947025338    9.29327877946661   -1.03160679529597
C          -3.54637244068743    8.62352980292104    0.71358011979004
C          -2.75299088369721    7.45624933629513    0.80801227948242
C          -1.97872784167968    7.53153242819255    2.03117473325358
O          -1.12883843897288    6.81503417735570    2.51242143373950
N          -2.41764838451939    8.72911616747552    2.63428352687266
C          -1.86069036463942    9.18005756724792    3.88651643943380
C          -0.82957146744309   10.28753117769297    3.68370972461746
C          -3.34474947242363    9.38654300030399    1.86409501939557
C          -3.98891807363747   10.58802553115272    2.25515171951348
C          -4.89754357770411   11.22289535518968    1.47376555407229
C          -5.59935571669865   12.38630212192554    1.87349314783424
S          -5.42635754694848   13.15976205313694    3.45210772279874
C          -6.66008308421169   14.29010425630224    2.88427017778514
N          -7.05018541327034   14.01762242078247    1.66871193927644
N          -6.47929550674257   12.99378982951045    1.12346650115647
C          -7.19751916004153   15.35007877771279    3.65652978506630
C          -6.80432056474632   15.61752111411943    4.92615227774826
C          -7.31599363619193   16.58804717393797    5.83005889162856
C          -8.21680075301350   17.60536592670085    5.68889863732386
C          -8.65165249966548   18.44164984241942    6.80489130069764
C          -8.46500030858978   18.19669803325927    8.14017745046300
C          -8.93313746197440   19.04312533214625    9.16911774576787
N          -9.27920376455774   19.68367717752603   10.05646881140855
C          -7.82653279524962   17.07334857990214    8.70920897009353
N          -7.34522271240445   16.19287832074342    9.26832551542178
C          -9.40695283053126   19.56354780426062    6.26300212603581
C          -9.51947725543539   19.39071360325231    4.85569476645969
C          -8.82792249782979   18.15846536537260    4.44732882717648
O          -8.77481175568496   17.72418038812764    3.31672439182496
C         -10.19246276490219   20.27896609506488    4.06658520015919
C         -10.79657291283786   21.40726601492188    4.66317157134567
C         -10.68379674691924   21.59310014489492    6.07172877854018
C          -9.97926716025754   20.65597183613670    6.86129244376111
C         -11.29095289753473   22.72273210971849    6.65768094911380
C         -11.97785765732399   23.62451681742563    5.89141853532159
C         -12.08786736606246   23.44041087251493    4.50479023514028
C         -11.50965628271221   22.35551439507131    3.90356306076245
H           1.68321721106284   -2.74439225593546   -3.15400595978743
H          -1.28260938413256   -0.04633010994169   -6.11962644316263
H          -0.57938244156192   -1.36896294996572   -8.02288673400962
H           0.75645839549875   -3.20362022307459   -8.97859010908306
H           2.22062427536128   -4.55816282916534   -7.53372324280989
H           2.36256410140536   -4.08697044504153   -5.11999200973065
H          -0.27340124205637    1.00420850719700    0.00931088639027
H          -5.56102714399065    7.02061551933920   -2.22837810638097
H          -4.27644676791551    5.81113081225021   -2.45347627854109
H          -2.91945976102344    7.57099095970503   -3.65647418609108
H          -4.25871321558816    8.71265686138702   -3.43734010858017
H          -4.47369948633178    7.28214989031013   -4.45157746193113
H          -1.37847141349861    8.30619863966385    4.33295355184133
H          -2.66539749043136    9.51266449061510    4.54797770645430
H          -0.01551430075284    9.92655643779267    3.06005639990312
H          -0.42255555619366   10.59107454590155    4.64409084048165
H          -1.27601064730671   11.15491277178460    3.20225024263265
H          -3.75416795346312   10.99183866024274    3.23147601043714
H          -5.14946072617957   10.84798260396884    0.48990203213359
H          -7.95953486267527   15.93408674176812    3.16024446325231
H          -6.02890233647919   14.98841261765565    5.35186551796445
H          -6.89878323266428   16.48202083661126    6.82478343633129
H         -10.26370139617602   20.11903936599672    3.00097437392438
H          -9.90878048079493   20.83101351268056    7.92276650847391
H         -11.20507596877253   22.85954571768655    7.72563338416868
H         -12.44111850477475   24.48525343126765    6.34985805943749
H         -12.63300998680591   24.16257399847703    3.91567952752959
H         -11.59083304066792   22.20796945525311    2.83664920855564
