107
 SCF done       -201.632223683660          0.000976628806
C          -2.09648850539627    1.93127286136930    1.00635892336008
C          -2.31678123177808    3.20401563475027    1.45880938988495
C          -3.37462377224875    3.56368444744509    2.31970741881803
N          -4.20736772953187    3.89925279556239    3.03510136284134
C          -1.46156127431607    4.29578405981457    1.20378132887276
N          -0.76380351207443    5.20194209678837    1.09361803728289
C          -2.80185004900195    0.73907580072537    1.46006108022452
C          -1.99097375480895   -0.40126632723484    1.18456594281756
C          -2.38112581973550   -1.66024207349614    1.53972744149492
C          -3.62436380040860   -1.84002738910337    2.18707370770982
C          -4.44801149831654   -0.70652100571100    2.44664629364383
C          -4.01574967619388    0.58692905797130    2.07335026848220
C          -5.68896773611350   -0.90269002983878    3.08623819602996
C          -6.09672311069808   -2.15509752629950    3.45648352724729
C          -5.28418905082643   -3.27000957548973    3.20216437982711
C          -4.07472822286346   -3.11552557623475    2.58101390436586
C          -0.76551995126067    0.02582746944974    0.48332835082187
O           0.17754309883389   -0.65179077135962    0.14707040738379
C          -0.96345250867815    1.47950056388078    0.21757862961249
C          -0.21891616747896    2.12578920105946   -0.71172249947639
C          -0.55596215411490    3.37153120037768   -1.32586204230517
C           0.44858633418686    4.30708989429494   -1.66958756624101
C           0.13801796827494    5.69050729380680   -1.92611740992282
N           1.14082315800859    6.58649618431708   -2.00338726703323
C           2.37032217920590    6.17003966354389   -1.88149296997397
C           2.67355396921221    4.80380139754663   -1.71439117310980
N           1.73277450059611    3.90997578012263   -1.60619989428556
C          -1.20770107256408    6.12008161640648   -1.96393062649557
C          -2.18550851232691    5.10332923338988   -1.97930363242941
C          -1.88368023039056    3.75891730620454   -1.56791309378587
N          -2.99505982376597    3.02764845329110   -1.44047554601856
S          -4.25653493307434    3.93592488483153   -1.82711540201632
N          -3.48447178812989    5.28196565930301   -2.20803502194740
C          -1.70176204721605    7.40920917876185   -1.57925455518333
N          -1.26949145666786    8.65958416809090   -1.89144257887962
C          -0.36818578471004    9.01726910690316   -2.96127057986527
C          -1.00371767825019    8.75815878308427   -4.32421535864756
C          -1.97320966865737    9.64953660244162   -1.16153927518852
O          -1.78616251183246   10.83911474321288   -1.29389908096815
C          -2.87083360655782    8.89424823739275   -0.31478830553953
C          -2.71423387685556    7.52479721441745   -0.62116483976710
C          -3.55226321967598    6.77652744436220    0.28498471197214
O          -3.76704744687448    5.58123118655895    0.41491227963957
N          -4.18419097715319    7.75244626712649    1.07640026384128
C          -5.03087245500870    7.34029943155908    2.17069282914610
C          -4.31737186066037    7.45288329970331    3.51469820090046
C          -3.77562027484424    9.02284023527245    0.73696254537068
C          -4.14669013375470   10.28722559007165    1.26292293599939
C          -5.04934964761418   10.62242644478144    2.21504435657296
C          -5.30875859032837   11.97094969145441    2.58824684938434
S          -4.43718648892033   13.30766987446169    1.89364508161361
C          -5.34014536572999   14.44594802732529    2.82601129924324
C          -5.02168723453760   15.88694909648499    2.79672129447236
O          -5.23816696235357   16.61615823596205    3.72943065389717
O          -4.44709547025839   16.34423423102575    1.67962715251089
C          -6.27430597634472   13.81979442004650    3.63565093144124
C          -6.23265684127084   12.41896126834336    3.50616895201496
C          -7.20421239578539   14.49979538745577    4.51452717531577
C          -7.93160492069394   15.58328701522258    4.18185987667562
C          -8.77666785186558   16.37888164479326    5.06768143104379
C          -9.19579493622533   16.03525867113607    6.32248189413654
C         -10.01695025980408   16.84964152705646    7.13275109301907
N         -10.68706895952719   17.45881439928579    7.83756253986750
C          -8.91486390461814   14.80959836024411    6.96366476550155
N          -8.74578222326844   13.82763666248348    7.53438964506376
C          -9.11956601530673   17.60201760904055    4.35732136532166
C          -8.64027781451830   17.50820425522282    3.01857676676503
C          -7.95206887379609   16.22662565892954    2.83112760121960
O          -7.53201690191932   15.76540441503143    1.79187005989761
C          -8.82038357595572   18.51630705901367    2.11457634169992
C          -9.49234944176778   19.69052447352790    2.51797874589161
C          -9.96959824002709   19.79570558502666    3.85727846709351
C          -9.77373886968825   18.73437062587538    4.76911084638489
C         -10.63566392257708   20.97525088351066    4.24936633628004
C         -10.82198522072282   22.00140783020812    3.36387408965739
C         -10.35186959164631   21.89658306243832    2.04583795428495
C          -9.70143291248207   20.76607823237423    1.63203044197046
H          -1.74966211445695   -2.51066181911093    1.32912767318540
H          -4.65957396735675    1.42957091754656    2.27217416387195
H          -6.30951975285202   -0.04081879556701    3.28313407909989
H          -7.04767954399923   -2.29406295204654    3.94903698629872
H          -5.62082933544126   -4.25132541228738    3.50221135843693
H          -3.44445518348766   -3.97019562881559    2.38295984335056
H           0.69687858799734    1.65114488808757   -1.04524324461081
H           3.14612046693165    6.91963125411367   -1.95654425755555
H           3.69333592726101    4.44559463099491   -1.69420542696308
H           0.55317713257707    8.44168234330454   -2.85233665972939
H          -0.16095478705162   10.08326704439310   -2.83641459776661
H          -1.23700035333889    7.70174022296254   -4.44004976187723
H          -0.31610964778985    9.05202127982823   -5.11221209576813
H          -1.92213586483398    9.33127901999361   -4.43146504541636
H          -5.26861742979709    6.28843363634821    1.98526168598918
H          -5.95953099222309    7.91649176952127    2.15400005642293
H          -3.44861876017673    6.79921759762697    3.52041970102563
H          -4.98638019380960    7.13825276419754    4.31054223025422
H          -3.98743260478112    8.47143572645437    3.70705587883169
H          -3.60722946669752   11.09461417356601    0.77863212536368
H          -5.63793546991922    9.88633345235049    2.74014233174182
H          -4.40035199603816   15.68206884854474    0.97586921859584
H          -6.88535208970238   11.76028417816176    4.05145973495631
H          -7.29357674761483   14.06772528070236    5.50288234771503
H          -8.44570195442123   18.42037174664859    1.10638606386346
H         -10.14002479183075   18.84716068627326    5.77728615350510
H         -10.99610749186089   21.05156735773414    5.26466320556955
H         -11.33250385451483   22.90074716863073    3.67417158298083
H         -10.50712374346797   22.71668148648246    1.36090477611753
H          -9.33624689433154   20.67969871255934    0.61918224918885
