106
 SCF done       -186.854644371322          0.000593107158
C          -1.75144593415300    3.26131713226454   -3.44999016522082
C          -0.55315584428418    3.54522588271707   -4.03448566976515
C          -0.40068696196556    4.43535892206197   -5.11769232141676
N          -0.21090798220266    5.11440429403110   -6.02331383941718
C           0.66547526655513    2.92585276202709   -3.68185555507959
N           1.67946011194049    2.43088816691986   -3.47242754823935
C          -3.04014478190726    3.75462786460606   -3.90749213277690
C          -4.05497380874234    2.84366751266598   -3.49027300973852
C          -5.36735154625886    3.04752970233989   -3.81145993992557
C          -5.72290734898725    4.19504515833949   -4.55582809442704
C          -4.71315559314576    5.12538806386371   -4.94194487902225
C          -3.36189614513932    4.88650436162454   -4.60607252608894
C          -5.09172853972768    6.27728236544097   -5.66159388627928
C          -6.40077202304803    6.50124812338616   -5.98900741147026
C          -7.39324279100456    5.58341662191743   -5.61242111764671
C          -7.06138927978536    4.45559581696518   -4.91270132639995
C          -3.44824535274663    1.77664692396786   -2.67345840568816
O          -3.97043170923375    0.79124447400314   -2.21409920816326
C          -2.03172973331866    2.22810992459102   -2.45636618559644
C          -1.34861109478028    1.83827541856387   -1.36456861547184
C          -0.16752656249342    2.51833346202417   -0.85760625539795
N           0.63229159644695    1.88290364973967   -0.00373210823380
C           1.70468148427223    2.54383032332351    0.39977703637935
C           2.01892366176351    3.82112701068671   -0.03939547413441
C           1.10202718091098    4.42203774160787   -0.91132470991414
N           0.00351927135547    3.76282795701315   -1.27278627808220
C           1.21974446593024    5.70167829281647   -1.57040317365594
C           2.33807448304577    6.43783873864301   -1.71651016040577
C           2.35608726081068    7.58399869118487   -2.56575818787905
N           3.45049852790326    8.39833998652234   -2.72537015203053
C           4.69587162317442    8.32390657709362   -2.00295559394400
C           4.55922872504563    8.85633849149320   -0.57850822222994
C           3.22171958206595    9.41103837405464   -3.68014435727192
O           4.05365524601733   10.24077417793873   -3.97950288677375
C           1.87050292996749    9.17027582833633   -4.13252823291958
C           1.36238322010835    8.04747279927730   -3.42168090307109
C           0.02114135774463    7.79577824546563   -3.90247591750995
O          -0.82326185598338    6.97529781578340   -3.58912558853001
N          -0.19011049398073    8.77837691943080   -4.87879949672724
C          -1.42242110000809    8.83218734159172   -5.62766550819488
C          -1.28510535629089    8.15913889057319   -6.99102329748012
C           0.90374688809785    9.59904530837160   -5.03314431177899
C           0.94850486331877   10.67191399278800   -5.96726057675868
C           1.98578482448789   11.52684318589819   -6.07618270287318
C           1.98396617543839   12.60072131191759   -7.04731301756135
N           0.97673261405580   12.66109753262632   -7.93020135981907
C           1.01532690381204   13.63211235396517   -8.82040934690050
C           2.03565082835790   14.57084649175583   -8.85811215110039
C           3.03208080782271   14.45017673078548   -7.87921792530798
N           2.99360521808915   13.45911873609646   -6.99084188003304
C           4.12453653664186   15.39659257259391   -7.79770115391940
C           5.02944588144031   15.38803844409468   -6.79633592219602
C           6.08010845814916   16.34592510115839   -6.73933327621731
C           6.98156272238616   16.46236132204862   -5.72753138967567
C           8.07614702420378   17.41807282770175   -5.63991402057411
C           8.36314682004869   18.42366732448971   -6.52511998656340
C           9.43727554951467   19.32745591731132   -6.37628534961920
N          10.28842213424909   20.09558114747122   -6.31919805459782
C           7.64047210741066   18.72477628912648   -7.69898026804189
N           7.11070232002434   19.04296867615432   -8.66716191369620
C           8.81900375308505   17.13279327810447   -4.41801605155212
C           8.18909225704562   16.05034465422101   -3.74074817914038
C           7.01361515384929   15.60267689028388   -4.50790683340739
O           6.23666395102143   14.72963362326886   -4.19555531889597
C           8.66352949421285   15.56293185552811   -2.55725497272177
C           9.81396462441225   16.14747210928999   -1.98314094093292
C          10.45229691839463   17.23054205857099   -2.65412238657973
C           9.93849655069032   17.71258666595509   -3.87917058319493
C          11.59913269277712   17.80853971513592   -2.07160742895544
C          12.09192200776972   17.34132863496332   -0.88393602906151
C          11.46258178096826   16.27461135833280   -0.22447604894806
C          10.34830808172590   15.69021926044370   -0.76249444124298
H          -6.12748688207013    2.34880430732578   -3.49479822986322
H          -2.60894797316644    5.61285541001507   -4.86822070465624
H          -4.32243773780803    6.97727507345068   -5.95220851104187
H          -6.68074074444155    7.38670625211889   -6.53991317650837
H          -8.42187391479093    5.77570962425517   -5.87847029961087
H          -7.82181335826172    3.74648482347092   -4.61984193723346
H          -1.73248499678133    1.01640412814571   -0.77516942905927
H           2.34132062427423    2.01560168812418    1.09830598032588
H           2.91573201084163    4.32220346016690    0.28438794085990
H           0.31269804126995    6.00282893609312   -2.07778426707303
H           3.26237730889723    6.15120409776236   -1.23520243881915
H           5.40255590356965    8.94484002781310   -2.56094930840520
H           5.06031067653968    7.29228996626834   -2.00052961923861
H           4.24380553680665    9.89647624427895   -0.60129468397626
H           5.51653180927528    8.79448408097527   -0.06822408432803
H           3.82362090408862    8.28443519322490   -0.01668489147247
H          -1.73867048005957    9.87394962085713   -5.73245620416348
H          -2.16330975635339    8.30097424342027   -5.02213876060397
H          -0.54589152975223    8.67206059345396   -7.60157089622670
H          -2.23927841937655    8.17728832905261   -7.51176948432851
H          -0.97066031752184    7.12581327240302   -6.86374738710990
H           0.10279096806428   10.81323872713659   -6.62507439307509
H           2.86137950957374   11.45685983179042   -5.44723091696519
H           0.19545302046307   13.65700376091734   -9.52814992052534
H           2.05746933387008   15.35862417682250   -9.59330379023587
H           4.17399704378893   16.14349363844519   -8.58073198757013
H           4.94732985235099   14.64515677762926   -6.01615859672248
H           6.14789397404217   17.02472361760853   -7.58081950348616
H           8.16463433398825   14.74055738409205   -2.06638987473657
H          10.44740031475677   18.53190687043946   -4.36125759712770
H          12.07994801857756   18.62961487851321   -2.58283442218869
H          12.96993464139244   17.79125686434377   -0.44533095369859
H          11.86541932240004   15.91871992148321    0.71200078334995
H           9.85926286194941   14.86871800125552   -0.25972330677206
