118
 SCF done       -235.862832107045          0.000941844197
C           1.90764580299909    9.43073397698574    0.14386057976311
C           3.16781840478106    9.88025480531218   -0.12977937119841
C           3.49567446720900   11.23844874668728   -0.33261409547271
N           3.81042704699327   12.32832748164759   -0.50129040090443
C           4.26365602631981    9.01343057427443   -0.32467416381367
N           5.15274105477199    8.32135336526444   -0.54414288496272
C           0.68494958974906   10.21251930454693    0.18713326791861
C          -0.43354349462119    9.32517157742434    0.19407100079539
C          -1.71733539803010    9.79122969583504    0.21966938782146
C          -1.94453019138907   11.18480950010902    0.24726893583970
C          -0.83115548637170   12.07652122730648    0.24868897374874
C           0.48626064680241   11.56870208325260    0.21712347592498
C          -1.07293326719420   13.46537921369352    0.28262209461549
C          -2.35129373431558   13.95227117720922    0.31314234238826
C          -3.44603837681882   13.07431439824230    0.31146718492926
C          -3.24724247625408   11.72053221207566    0.27869930452950
C           0.03858541098247    7.93553524224838    0.19758670509711
O          -0.60549912402407    6.91550620321974    0.12209010431096
C           1.52863303874883    8.03331192996682    0.33312164155234
C           2.30440839720200    7.00837307139548    0.71453021335151
C           1.80079350787037    5.64761422053690    0.87944914145340
C           1.00429010100458    5.16276086837171    1.90281309597107
C           0.48370619935447    5.72327505914150    3.11597054591776
O          -0.32871991984453    5.17413801434988    3.82326450682595
C           1.04601674746010    7.09483817281709    3.59275283824363
F           0.47734040659895    8.13899835374772    2.96300338027891
F           0.82962367837021    7.26459097393838    4.89265229003758
F           2.37248759345442    7.21133133452813    3.40041340827520
S           0.56643170743866    3.49490272063391    1.62932089512638
C           1.47293787105192    3.45457408158911    0.20234686212393
C           2.08792743063014    4.65530211894682   -0.10114364080582
C           2.90903528134733    4.93763727762379   -1.25037008755559
C           3.18523395353971    4.04082929536053   -2.21960114040738
C           3.98517987560787    4.18060620122890   -3.38946365623956
N           4.66110755948504    5.26441075183176   -3.89610347609635
C           4.70298888741708    6.62342376615653   -3.41186618446967
C           3.40721688560322    7.37705729349824   -3.70260497654466
C           5.34456984749990    4.93635829608488   -5.08954655275359
O           6.02178867307580    5.72923212313853   -5.70939542279625
C           5.04962873477275    3.53786390791898   -5.31031220818447
C           4.21882669782766    3.11066769968673   -4.24814267427045
C           3.94104346939067    1.70338280201856   -4.42443557891970
O           3.28832179079655    0.91391783729967   -3.77448381024369
N           4.64169743857393    1.36543426026364   -5.59993455210565
C           4.60335325431415    0.02762867204359   -6.13755229578957
C           3.63183799003404   -0.08641711343898   -7.30989528760602
C           5.29570262507030    2.44730811798049   -6.13842451768328
C           6.08648080050395    2.38991134189587   -7.31966322669048
C           6.61044376920901    3.50149030597291   -7.87729562776009
C           7.42310893803541    3.54736962556128   -9.06460008683987
C           8.50450201612671    2.69808355693447   -9.38340338073682
C           9.01666837709194    1.63554190861324   -8.49084130196811
O           8.61093021242643    1.29287657470444   -7.42073526251397
S          10.44853630187439    0.86108752049252   -9.24775551257134
C          10.39177102668919    1.92805278748735  -10.68463188412001
O          11.18998842609255    1.85992176342219  -11.57025600989815
C           9.25232112853234    2.85987921351051  -10.55249989790654
C           8.99779738462608    3.86260772179189  -11.50935298043322
C           7.91041685980681    4.69472897392899  -11.19413336025820
C           7.17723580516286    4.54184783740029  -10.02639924939109
C           6.05868560787787    5.51463088279455  -10.06622987085330
O           5.17104266449047    5.69876797902884   -9.29532847148646
O           6.16973378183416    6.20100050205821  -11.25258155731684
C           7.22885178429167    5.74655836598839  -11.99920578196704
O           7.44427003450468    6.14235280537388  -13.10081950611659
C           9.77618779818958    4.00505868700385  -12.71508778564802
C          10.14163842034723    5.19753154180946  -13.22950069701784
C          10.86332357804499    5.29560550989497  -14.45267475854632
C          11.28873684017307    6.46802318907527  -14.99201405657682
C          11.93948946040051    6.65403641266821  -16.28191299633609
C          12.39444787919592    5.67094158882461  -17.11902780041182
C          13.03871768760733    5.91754021460868  -18.35113530603833
N          13.57021120972625    6.04911695599275  -19.35981243496904
C          12.30970048999672    4.28150872861076  -16.88398920857977
N          12.28225749440542    3.13894348163557  -16.77771823567405
C          12.04287967540738    8.08763466264497  -16.52299536843913
C          11.53970093267391    8.78240311171017  -15.38557931100921
C          11.09813026006860    7.81390471689361  -14.37041488893141
O          10.69071707682697    8.06323236051181  -13.25746525736326
C          11.50738290235260   10.14646738860005  -15.32832473924170
C          11.98076463174029   10.89392302025810  -16.42908975267416
C          12.48249265030937   10.20711539215755  -17.57286895503962
C          12.50659127458809    8.79454087386429  -17.60218945130051
C          12.95023465452010   10.96270163108554  -18.66769581651462
C          12.92437072480229   12.33027654732231  -18.63599222418706
C          12.43014204701319   13.00533133368630  -17.50946832024173
C          11.96868649033651   12.30271498260617  -16.42954018909144
H          -2.54949321478676    9.10327255287907    0.22494366293680
H           1.31162898293357   12.26362535285842    0.22982561078601
H          -0.22727025288167   14.13711643857543    0.28266976249985
H          -2.52638983709356   15.01716793427458    0.33935431649512
H          -4.44765053681940   13.47626575990261    0.33703719543793
H          -4.08619853496697   11.04046621627970    0.27798428784224
H           3.36595947649089    7.14100452234443    0.88526424002748
H           1.52272492103845    2.54690018207271   -0.36703008452849
H           3.30776131567121    5.93911013734178   -1.28499995747452
H           2.77238940814761    3.04355079774439   -2.14215093893318
H           5.52329392760939    7.10276189412531   -3.95463310183748
H           4.94665288337016    6.63980385260367   -2.34698704101745
H           3.24011842554446    7.42381519988662   -4.77595782800840
H           3.48536084357403    8.39166350013818   -3.32059325124605
H           2.54943636670378    6.89107400678991   -3.24187688465232
H           4.26683816506774   -0.61594653482912   -5.31980311415493
H           5.61176469417614   -0.27536194247196   -6.43253128347934
H           2.62755801731182    0.17602647459752   -6.98639605344823
H           3.62105582884202   -1.10745028406319   -7.68098829619189
H           3.91782634535471    0.57931791268668   -8.12150285714145
H           6.23378712147910    1.42194736672583   -7.77439460156392
H           6.35981842516223    4.46910855358996   -7.45778238779155
H          10.11727687760065    3.09153771187370  -13.18459188617877
H           9.90540903542111    6.11844954627246  -12.71859845407498
H          11.03420509109793    4.36885243046986  -14.98536838774191
H          11.12066543306949   10.64795850025892  -14.45363571396318
H          12.88876949803029    8.30631567496688  -18.48440684124063
H          13.33004869621953   10.43850356063799  -19.53232718875833
H          13.28453502953068   12.90014407377110  -19.47929979865953
H          12.41681411941912   14.08492348320837  -17.50213163611200
H          11.58689772499733   12.81690023200444  -15.55976616363786
