100
 SCF done       -189.371004573843          0.000886265362
C           0.87497785533048    4.90306401470025    3.52539450071926
C           1.87569199920294    5.45761033811458    2.77314479364196
C           2.56628193278309    6.63019104163443    3.14356842416736
N           3.13935525098356    7.59195886792742    3.39688698141411
C           2.36712286457827    4.87404988592206    1.58619003836725
N           2.79942168290874    4.42141097091791    0.62447083282651
C           0.47636668673709    5.34113055913752    4.85671249422876
C          -0.17005569497797    4.25346790478488    5.51390580064160
C          -0.62931812158807    4.36525374263601    6.79481198894235
C          -0.46603604573171    5.59062680649249    7.48102891442649
C           0.16521248627438    6.68478435341209    6.82133910951598
C           0.63212474939412    6.54133683634060    5.49512358082089
C           0.32306828463810    7.90024267589000    7.51739122981184
C          -0.12240106546039    8.03268305193002    8.80432606345685
C          -0.74707955200338    6.95661113923865    9.45268076502027
C          -0.91362138047802    5.76189352930815    8.80610406698738
C          -0.24992414872068    3.10139879707628    4.59337764346918
O          -0.66301126091412    1.99136267441037    4.81904512550238
C           0.22767586904484    3.63228399843266    3.27696882999293
C          -0.10652074475487    3.00082794960998    2.12027295053116
C          -0.18697196247088    3.57539897936076    0.82788386834352
O          -0.16709914409478    4.91273339800445    0.66271595580911
C          -0.40932806160554    5.18165724601250   -0.64061010646840
C          -0.56801717054542    3.99951480811006   -1.34513378537034
C          -0.43504015587476    2.96033435487307   -0.40930966786453
C          -0.54665581376668    1.52913270453615   -0.66434736639690
O          -0.42830395497157    0.66567132389896    0.16631551595445
C          -0.51131820807188    6.51104345464083   -1.13054928548626
N          -0.33599705500508    7.66515501582369   -0.39886332795794
C           0.03333297869184    7.79122343524936    0.98954504038303
C          -1.10914303666542    7.47403208770443    1.94888378343294
C          -0.50406654511243    8.81063716967370   -1.19741605170871
O          -0.39819948408512    9.94517986765343   -0.76538299217331
C          -0.80857177990725    8.29939727605261   -2.50594066246641
C          -0.81477115637625    6.87792187912244   -2.43302770386561
C          -1.19872054777338    6.37391204772624   -3.73435430996708
O          -1.31915442281444    5.24934902553615   -4.17019217377892
N          -1.42222937108874    7.53777081019965   -4.50275979843447
C          -1.86726973148421    7.46349260374215   -5.87475167351647
C          -3.38964741772535    7.39543933014219   -5.96118976752235
C          -1.19359680911202    8.67520319440885   -3.78413533491080
C          -1.41461668127463   10.01394753334624   -4.25684800487527
C          -0.75148881906807   11.06721182115918   -3.76332445759425
C          -1.17555324420387   12.44249476549800   -4.00387237132803
C          -0.65254146449818   13.48211816241813   -4.72485722642066
O          -1.40541446049853   14.57882610412119   -4.61697363263952
C          -2.43781404334720   14.26846063292682   -3.81237787868165
N          -3.39680570778279   15.24328855707722   -3.46141098738144
O          -4.28184277780129   14.86748164082956   -2.71297044817865
O          -3.28390129655858   16.35601310547691   -3.92146201192561
C          -2.35771115926539   12.96005827330821   -3.39126958517346
C          -3.20390362661403   12.17160302166664   -2.51549485090369
C          -2.74931973834858   11.75309323929596   -1.32380054611225
C          -3.30366034331743   10.74927287313271   -0.43328993703028
C          -3.99853273650325    9.65113323480847   -0.86002943428170
C          -4.32810317808101    8.56526076592505   -0.02430037047420
N          -4.57649676352048    7.64938836978535    0.62142555743013
C          -4.31188092415250    9.43558088197381   -2.21679835793265
N          -4.53530257366210    9.20883181265086   -3.31978726885179
C          -2.71463673782911   10.94559773660956    0.87777086093183
C          -1.64353771942242   11.88034260656492    0.75756176461964
C          -1.57231370238132   12.37571779935239   -0.62739417825973
O          -0.79944915628505   13.16697426260362   -1.10727319327363
C          -0.83260939814783   12.17016020686074    1.81632031103471
C          -1.06189645341808   11.53252817264351    3.05762233279794
C          -2.15835593808155   10.63222888884601    3.19347003479313
C          -2.98838056310863   10.35615417502042    2.08351665254634
C          -2.37357521987889   10.00199201048285    4.43635975664616
C          -1.54227579197994   10.24101297072640    5.49639300709081
C          -0.46266765716236   11.12717150982209    5.36225183463874
C          -0.22851666326991   11.75941031415858    4.17090625599630
H          -1.11046906898485    3.52996182736898    7.28106696241011
H           1.09498494589593    7.38858638477217    5.01266751725338
H           0.81356540483649    8.72008008456708    7.01347031631654
H           0.00649098470367    8.96601703330102    9.33199762067222
H          -1.09294533672436    7.07837231329685   10.46806517568108
H          -1.39028595738205    4.92975676098879    9.30269673544598
H          -0.45484746692934    1.97633749131016    2.19192923841159
H          -0.76612098960194    3.92029805197130   -2.39594783793925
H          -0.76578443772213    1.29382194851361   -1.72136648661737
H           0.33588054022316    8.83553851472848    1.11731816410931
H           0.89582605083945    7.15081442540632    1.18786274123998
H          -1.99335514025386    8.04384611838628    1.67742597869446
H          -0.81862700809749    7.74593385347979    2.96081826000358
H          -1.36469841773478    6.41857061459560    1.93147294366455
H          -1.43462522391754    6.55290511588883   -6.29874433502475
H          -1.47871781026843    8.32858722561931   -6.41710746766125
H          -3.74334894755726    6.47632281799492   -5.50144172722874
H          -3.70030762381139    7.40650975264317   -7.00204932315950
H          -3.84660834770128    8.23398955155530   -5.44231875009083
H          -2.18676300962366   10.15192399076841   -5.00156430331630
H           0.05152640932996   10.93224012187513   -3.05172161359813
H           0.22493952956876   13.54353922289287   -5.33863275027550
H          -4.17920057991065   11.89011703298489   -2.88991478369589
H          -0.01244251521613   12.86316090243653    1.70534101119678
H          -3.82493475256290    9.68479093038164    2.21090499952846
H          -3.20399288974361    9.31778531050377    4.53246388524356
H          -1.71224195953440    9.74743111553984    6.44198864975090
H           0.18149079821856   11.31101889104276    6.20925445434181
H           0.60219456165415   12.44106799552067    4.06461680675424
