90
 SCF done       -167.466054515886          0.000490657183
C           1.02789883776589    1.14618405756025   -2.24329549226055
C           0.98367890921731    0.56942818182886   -1.00142304844343
C           1.24970571751822   -0.79534198886099   -0.75867828366491
N           1.44808576994325   -1.89449038977341   -0.49424550888489
C           0.71720145938214    1.24249636759900    0.21007281976598
N           0.52946640479588    1.71982171352921    1.23769921306456
C           1.40951132536863    0.46790961584736   -3.47441986772737
C           1.53362378295338    1.44228331856095   -4.50445794214448
C           1.89012975916387    1.10628748813115   -5.77886316235972
C           2.13395330328478   -0.24985965544916   -6.08956123661411
C           2.00203676560339   -1.23352876560758   -5.06669759903759
C           1.63837188809067   -0.85361524184197   -3.75453207389818
C           2.23998305617159   -2.58494491286201   -5.39010584710383
C           2.59202983591923   -2.94885979396739   -6.66134391271182
C           2.72257484711277   -1.97947261281047   -7.66713636865763
C           2.49908006188227   -0.65857876533135   -7.38727856563394
C           1.21589615788124    2.77520609267874   -3.96795981229049
O           1.28458329489595    3.82237376547074   -4.57606759893176
C           0.78690656348526    2.54787413092468   -2.56229341136533
C           0.13082460724156    3.40489580344331   -1.72779672444942
C          -0.20012437063179    4.77241111155201   -1.87127570659005
S          -1.30121801272368    5.43342480757191   -0.67350767372656
C          -1.26729175619005    6.99357473591427   -1.41383881363313
C          -0.41205046925369    6.98788091254989   -2.52370943670144
C           0.18149342430331    5.74572662609223   -2.77355563077084
C          -0.19049783980633    8.13852498674900   -3.30149448956067
N          -0.02054423977835    9.08769176881779   -3.92190716428398
C          -2.03773038749842    8.09524153275223   -0.96742880977636
C          -2.87775889834851    8.04903031705728    0.09473998937627
C          -3.71671314727363    9.11351950327070    0.51569336984206
S          -4.78633856394505    8.88136027758290    1.87251225799745
C          -5.47110824386274   10.46512957626898    1.69609248788310
C          -4.86025646004152   11.13758521162338    0.63312800162562
C          -3.87957363508034   10.37398871193300   -0.01982048627318
C          -5.15207340725694   12.45163164071613    0.22778395475546
N          -5.35098043008642   13.52068398517456   -0.13833950064054
C          -6.52333138600811   10.85968638954260    2.56260137922017
C          -7.27125622911445   11.98080226812140    2.42262292502259
C          -8.35651574114664   12.33733229732514    3.26865084127209
S          -9.36794487017345   13.68313266459628    2.83488479857665
C         -10.39266165936757   13.45069916081712    4.21645724687564
C          -9.93081799257670   12.37266378445900    4.98239280326916
C          -8.79461731457171   11.75386819690088    4.44179479107618
C         -10.50060998056708   11.91328046899783    6.18309852838186
N         -10.90982579520584   11.49151206659147    7.16854592907519
C         -11.50987404405844   14.30535636281124    4.37431899429010
C         -12.42675994399505   14.22825613181284    5.37623080431834
C         -13.59647013894536   15.01582259523309    5.52788410772526
C         -14.01139955022938   16.17665075072065    4.93289086775320
C         -15.31273224536524   16.77930520466960    5.19806550647296
C         -16.40800766367819   16.15507764220931    5.73493660329319
C         -17.64990069698013   16.79131822635109    5.94681340614993
N         -18.68219911183082   17.24981345374792    6.15141545455931
C         -16.49012641793484   14.79396573706070    6.10081130629512
N         -16.66100866485353   13.69678722373574    6.39382959911807
C         -15.29200523458557   18.14553418789569    4.69271439189585
C         -14.05306155352720   18.35507338348135    4.02597599962830
C         -13.23560706315388   17.13361601853645    4.09814974969391
O         -12.14723847406987   16.98502353842054    3.58147445201913
C         -13.74638478131810   19.54107692233227    3.42291978765302
C         -14.68511391158577   20.59547853945296    3.46354789420594
C         -15.92498721960149   20.39794048670069    4.13773326630567
C         -16.21335307326516   19.15775725201570    4.75224847395535
C         -16.85435502367210   21.45745001939275    4.17283418711291
C         -16.57553483365697   22.65352633698362    3.56948810669260
C         -15.35473190219153   22.84652474028617    2.90558531784174
C         -14.42949025549027   21.83952909648108    2.85392940179927
H           1.98082644257931    1.86619951647831   -6.54080544276445
H           1.54124563750449   -1.62244506155076   -3.00464135042419
H           2.13972512974074   -3.32748432730606   -4.61215265676827
H           2.77198000359658   -3.98650599747416   -6.89905306735912
H           3.00063825247926   -2.28456467515333   -8.66478194587326
H           2.59777968232835    0.09233264433915   -8.15743967566089
H          -0.24742419517503    2.97780086803811   -0.80573620320424
H           0.85727221842889    5.56017139869810   -3.58857879452246
H          -1.93544837307053    9.00084361878975   -1.55001152531100
H          -2.94919148898117    7.13114092005370    0.66500733918751
H          -3.31963131446413   10.74434173624237   -0.85966556556294
H          -6.74434165461992   10.16571204586115    3.36216000894497
H          -7.07608874680661   12.65498499311647    1.60125724100047
H          -8.31480709785268   10.91299805317903    4.90976847907037
H         -11.61616188663334   15.06394132094179    3.61241037259655
H         -12.31273903706523   13.45103307845732    6.12049890103174
H         -14.27310926005894   14.61481496360459    6.27436902930507
H         -12.79981617795246   19.67109152130100    2.91951007235110
H         -17.15803895504008   19.04303084103207    5.25923954343224
H         -17.79361480134839   21.30364612506355    4.68349982895782
H         -17.29494740454440   23.45802614419385    3.60001787411052
H         -15.15129995504314   23.79691089721231    2.43529038453335
H         -13.48784015564599   21.98184411249935    2.34414230568642
