132
 SCF done       -242.574925520715          0.000680022000
C          -4.09422248690892    2.03982078401546   -1.35229906340177
C          -4.93238799384801    2.42022050354034   -0.33576490094213
C          -5.94637754333508    1.60793848538488    0.21087928356058
N          -6.76282142998604    0.98498220916399    0.72325506167456
C          -4.83397817836995    3.65906856374291    0.31154260463627
N          -4.76729449200501    4.68187455547739    0.83081037820139
C          -4.11924889215562    0.74506879233363   -2.01942709825824
C          -2.92455121072108    0.58973632038958   -2.78145707399370
C          -2.68190958990909   -0.53287061375477   -3.52007431899093
C          -3.64475618461831   -1.56673297228066   -3.53639550188447
C          -4.84786622346557   -1.41281908606416   -2.78732885129534
C          -5.06912187504321   -0.24118430716027   -2.02753240578157
C          -5.80503559946971   -2.44712279030802   -2.82173864095348
C          -5.58610828745318   -3.57996060006493   -3.55774050970142
C          -4.40105474201712   -3.73093478640541   -4.29324608613199
C          -3.45075047556277   -2.74593218764446   -4.28228180696557
C          -2.10126691646335    1.79489698559962   -2.63073691269815
O          -0.98925146273509    2.01128944137065   -3.05463465638962
C          -2.93835326014159    2.75929739068902   -1.84269113623575
C          -2.47347219324188    4.03232090438353   -1.74984036808643
C          -3.03508762047821    5.27393497328828   -1.33935390172022
C          -4.25679012602795    5.86271347560231   -1.62762335015260
N          -5.34407757221219    5.30778746072243   -2.32503931511844
O          -6.25082543678519    6.05324320549081   -2.64086524864776
O          -5.32002793403764    4.11100122537688   -2.57552106055059
C          -4.25260784280207    7.23331851788567   -1.18078231039316
C          -3.04043305926762    7.51088464254367   -0.64698297409233
C          -2.22597923382516    6.32488668203340   -0.70186618894668
C          -0.99762970323454    6.11787863530362   -0.11879318938148
C          -0.49204779418527    4.85045967826134    0.31417051569758
C           0.64745256200647    5.04640245406287    1.02502575351536
C           0.96941737581344    6.44941554584920    0.99860926209433
N           2.17444046740638    6.94272524518415    1.50065918913007
O           2.49095510440078    8.09980081283269    1.24517858444283
O           2.86861690914189    6.19370445902634    2.16919148772876
C          -0.01456335232071    7.14305665555122    0.30304997433043
C           0.02390411286560    8.51647754845703   -0.04905991741583
C          -0.45176307034090    9.03321761334138   -1.21168672771423
C          -0.16102070580361   10.36636598920063   -1.67686900209098
C           0.34723137722097   10.47623834024825   -2.98823783233768
C           0.87731380200838   11.64578928118403   -3.47736015725215
C           0.91812554418155   12.79473513571176   -2.68441213897697
C           0.36691270690395   12.73645596806285   -1.42902022387774
C          -0.21448642331792   11.55564989903720   -0.93380749524680
N          -0.90163234381197   11.84288999056380    0.22748796733845
C          -1.81303614167653   10.97785553656028    0.91918535796844
C          -0.84969989185088   13.19448085847373    0.51867239370982
O          -1.49822860401516   13.73067699776805    1.37814212888642
C           0.19667378693429   13.80951393416079   -0.39738153566958
C           1.49186284258390   14.01459202347956    0.45338227548000
C           2.69985376191299   13.78264192261872   -0.46305544482999
O           3.06950901927763   14.48380122800861   -1.37499658962724
N           3.25719080818581   12.58879805378036   -0.10803395408776
C           4.41814032083738   12.02710297097460   -0.74245043739311
C           2.68078374601313   12.07983216913937    1.04705271069299
C           3.02657478823287   10.94797827580710    1.75253933494095
C           2.36655053552684   10.70123942453601    2.95661281372489
C           1.39922432090128   11.58688860547905    3.42447508242220
C           1.03860385122817   12.70935417025828    2.68932152601164
C           1.66513762668777   12.93803961355033    1.48381232300204
C           2.78816899436445    9.53742651704129    3.75352031870360
C           4.13037383088719    9.42666766890280    4.10979415115829
C           5.26685568252696   10.35067879439511    3.87917036558499
O           5.29815530871173   11.41552574813291    3.32748065386485
O           6.37175804937764    9.79587982210841    4.43441547198643
C           6.08511162288349    8.54448127401200    5.03442733615972
C           4.62122785582195    8.34013216598131    4.82753552846321
C           3.78564782535601    7.31535429824077    5.22518152872247
C           2.45464064154233    7.40315393071441    4.87360559833304
C           1.93151605168320    8.48405017143599    4.14264078258790
C           0.53675355202590    8.47595228188362    3.75657962887170
C          -0.23053728428660    7.36146752396395    3.68921611334109
C          -1.62068931154288    7.38042779226952    3.39971679958632
C          -2.39787998370926    6.26143698321291    3.32260422380578
C          -3.84766987212223    6.20268614567066    3.22024642464246
C          -4.69189140941911    7.21507925564521    2.85307803295090
C          -6.09521571770842    7.08940814400287    2.76741312463825
N          -7.23996630664428    7.07057167155864    2.69510579304397
C          -4.27341515113479    8.49608773492244    2.45378217716677
N          -3.98564852367633    9.54738268724450    2.09064790672152
C          -4.25605042735309    4.82875919352776    3.47296668984248
C          -3.08924933726017    4.01449798906988    3.52719358310794
C          -1.89533828813724    4.86618633806452    3.43980920442591
O          -0.73785877257505    4.49483215559885    3.44730682034881
C          -3.16633719808618    2.65445761824677    3.62705729965135
C          -4.43592000506168    2.03915679271577    3.69530385935815
C          -5.60594552363066    2.85396885813626    3.70699995442386
C          -5.49529684620777    4.25820400596840    3.60345689368105
C          -6.86733920594382    2.22977330592358    3.78559673277934
C          -6.97227876705219    0.86670954779055    3.83263695069370
C          -5.82113198832221    0.06567810424857    3.81313039260755
C          -4.58022543190913    0.63889651704794    3.74985593833331
H          -1.76928043277662   -0.62943930408296   -4.08929577740447
H          -5.99505923711204   -0.14414318039075   -1.48283632875273
H          -6.71564299934438   -2.32671226768211   -2.25358298861998
H          -6.32572787716049   -4.36620686395995   -3.57804505940163
H          -4.24541987433505   -4.63051925411636   -4.86955226844216
H          -2.53699468302922   -2.85597049598990   -4.84769071768761
H          -1.44676887201573    4.12308128870590   -2.10889932319647
H          -5.10421809935672    7.88100264331569   -1.26287619927207
H          -2.75349654456330    8.41462804513174   -0.14973366845871
H          -1.00991603237817    3.91876373079286    0.19898967817343
H           1.24214547879672    4.31168591422013    1.53259550972616
H           0.64819491727744    9.14215755111748    0.57774503536641
H          -0.88268837448536    8.36123797575040   -1.94432015556571
H           0.35913780974064    9.58718891170190   -3.60099895426739
H           1.27517206624270   11.67599843888051   -4.47940140241228
H           1.35716133085632   13.70769599207787   -3.05309074889269
H          -2.53207428886411   10.54635747508854    0.22255638582981
H          -2.35283425320607   11.58362067267719    1.64595865837857
H          -1.28560862912507   10.17709895502638    1.43742847425937
H          -0.11648088005004   14.76550794794644   -0.81625256673146
H           1.48634400367477   15.01965418839347    0.87612061528907
H           4.71122395675410   12.69757359990995   -1.54915951914417
H           4.18567760591939   11.04111995704509   -1.14954252452966
H           5.23326636733717   11.93828472946376   -0.02204813966513
H           3.77612035899266   10.26343277591478    1.39698976857023
H           0.94738226731880   11.42096085733118    4.39159118122172
H           0.28691750174475   13.38622060501237    3.06396530618840
H           6.36423393732549    8.58790952873081    6.09308634594605
H           6.68713684576225    7.76964054735980    4.54618775901385
H           4.15761763712109    6.47017214250629    5.78166485106803
H           1.78788078952588    6.61383431380808    5.18163239374400
H           0.10530079277997    9.42732735422503    3.47323881138377
H           0.20192311744680    6.38996464101495    3.87693697971997
H          -2.08969722211252    8.35329840556593    3.31163191419608
H          -2.26839718045573    2.05387521669922    3.64613333568990
H          -6.39803176718113    4.84751371406668    3.60165044305861
H          -7.75029833891686    2.85126733696266    3.79039017285528
H          -7.94288652058195    0.39788428426812    3.87751087669576
H          -5.92199706330030   -1.00867387143975    3.84630658182066
H          -3.68987115593307    0.02646764639361    3.73657130193295
