118
 SCF done       -210.664236848739          0.000984050809
C          -2.44978863144085    8.57531412385694   -3.15764851460879
C          -3.29940569071962    7.58072537161914   -3.54960114738539
C          -4.62976015507606    7.80255968846307   -3.96285472175370
N          -5.71890492668906    7.92292976339206   -4.30420343367556
C          -2.91797968951256    6.23180118396860   -3.69191865711036
N          -2.65238267516630    5.13174770667569   -3.88514628479810
C          -2.69907397335813   10.00452580421275   -3.24722833208665
C          -1.45267203106134   10.69607635694134   -3.17714275096811
C          -1.38095662595488   12.05562171129870   -3.28417905768558
C          -2.56995386888010   12.79625096931673   -3.46755168719656
C          -3.81954479390000   12.11190814122995   -3.52135962591417
C          -3.86507715493430   10.70454637488920   -3.40536913791651
C          -4.99845672900808   12.86406354587371   -3.70218159878868
C          -4.94857785761970   14.22556430114488   -3.82638761376126
C          -3.71837201958076   14.89819350066295   -3.77373218311100
C          -2.55512768814450   14.19910542479615   -3.59808360283265
C          -0.36868097359207    9.72586215647727   -2.97235183283028
O           0.82578851676999    9.91068826406195   -2.94925760102764
C          -1.05928387036409    8.41674702769733   -2.76201509758805
C          -0.41832114229507    7.41787058094302   -2.13325372598127
C          -0.97020881509506    6.17801686951706   -1.61441734980039
C          -2.10297250204559    6.16912941512527   -0.79969620328176
C          -2.94646637905045    7.27571735862700   -0.29693557778130
O          -2.86420454176356    8.45778773100697   -0.50250137480496
O          -3.91096545389860    6.74494463641820    0.48568183324568
C          -3.80040175459071    5.33336543454023    0.56640386105684
C          -2.60993095389166    4.98802344430549   -0.26617476681014
C          -2.01392411482056    3.76991882955953   -0.53407777800858
C          -0.89879493176908    3.76012954879569   -1.34831498407046
C          -0.36306348409743    4.93265689684769   -1.89865647746764
C           0.77004932389432    4.91222721401664   -2.79237558158433
C           1.27685338870110    3.82934372369360   -3.41596584330385
C           2.37559485303188    3.80579067539280   -4.32334924811095
N           3.36539451922003    4.74988235645107   -4.50861720962459
C           3.67574588328385    5.89202705782036   -3.67939887502615
C           3.12699897401607    7.20152302193006   -4.24356973853450
C           4.24219134819658    4.38291671005664   -5.55326650877353
O           5.16955610323638    5.08285280143607   -5.91334567245222
C           3.75877650953686    3.09870543159115   -5.99523754883093
C           2.61583699734913    2.77856273324858   -5.22234095504374
C           2.10140825591539    1.51397364794017   -5.69693582821621
O           1.17629249352496    0.82443773569614   -5.32548826294618
N           2.96140555577083    1.16311846741431   -6.76399101573917
C           2.81302698826224   -0.12442744137299   -7.40287341070648
C           3.97200947298185   -1.06198417001226   -7.08422052372081
C           3.94722357121559    2.09930582123892   -6.94346631862262
C           4.98288983187931    2.16037400829586   -7.92323052137000
C           5.00974378535647    1.57034172119382   -9.13287456853001
C           6.06571611291728    1.71955325634335  -10.11091656149663
C           6.36543214821623    0.60319158344095  -10.90475095525530
C           5.69141852767555   -0.71237524653172  -10.98578862795830
O           4.72332638554130   -1.11369209197430  -10.39961244800168
O           6.35311705981215   -1.46718679251556  -11.89339911119137
C           7.45626993885699   -0.77023255723796  -12.44602695725032
C           7.43788390849247    0.57036590950023  -11.78765879208675
C           8.27833191873111    1.65933375430054  -11.91839683009590
C           7.97359255354010    2.78800478657292  -11.18182935368853
C           6.86920818314341    2.86932005966743  -10.31787533642477
C           6.60853274041613    4.18067574915538   -9.76176906710843
C           5.41185576299609    4.70050112670276   -9.40987205478651
C           5.30622370489299    6.02108680040582   -8.90489546042883
C           4.18100073320392    6.54987469803061   -8.34774081759666
C           4.00350842471593    7.91767521760310   -7.89212201768539
C           4.94951487669898    8.90799275676593   -7.86374041577936
C           4.71068440935241   10.21830202144004   -7.39667341003033
N           4.59090246057230   11.30038090024411   -7.03236547098561
C           6.28838242645503    8.78622759465722   -8.29134382127239
N           7.38602344941335    8.78833131678643   -8.62930954475292
C           2.61453864099884    8.06671887392350   -7.46861174840452
C           1.97066338675202    6.79957624968432   -7.56208198468872
C           2.92236204818126    5.80514387524668   -8.09062164273408
O           2.70701579300599    4.62208150551997   -8.26243390938500
C           0.65422567497868    6.63467663150137   -7.23865199113951
C          -0.10867315105657    7.76380533109298   -6.86152945740071
C           0.52564816482367    9.03678522835693   -6.77805640911868
C           1.90418752875178    9.16558626568473   -7.06219265489439
C          -0.25529566665475   10.16677840703156   -6.46103985026260
C          -1.60709723950833   10.05494707169118   -6.28342522600360
C          -2.23192938042242    8.80154160687003   -6.37097695804571
C          -1.49587572878983    7.67663086675987   -6.62924089664531
H          -0.42833319862780   12.56122620122364   -3.23055691859895
H          -4.82428737739178   10.21204198615127   -3.43359555479925
H          -5.94252788764592   12.34126373013726   -3.74400832526678
H          -5.85690436130980   14.79232158206702   -3.96634149090842
H          -3.69753815643341   15.97313740840787   -3.87282828046113
H          -1.60567136825294   14.71213369013936   -3.55554206813555
H           0.63730322387466    7.59374353998619   -1.94589441880621
H          -4.72457729935165    4.88511834583037    0.18454752122297
H          -3.68325506187653    5.04915765120623    1.61798315946917
H          -2.41006806649983    2.85433597166053   -0.12435663361135
H          -0.41972861256191    2.81919089638987   -1.56573236126300
H           1.18683497710448    5.88023928220983   -3.01512862164998
H           0.79514747782907    2.86558732082567   -3.32368493819021
H           4.76807588103574    5.96240666748490   -3.64299036907082
H           3.30630361430174    5.70050168366911   -2.66953144720216
H           3.69699375289011    7.48110254273343   -5.12448387232377
H           3.21604967602576    7.99874001904273   -3.51044268298082
H           2.08158951173126    7.10842961427043   -4.53305478798561
H           2.70024194572303   -0.00797951122426   -8.48241136982795
H           1.88158167195081   -0.53794678509990   -7.00400962829635
H           4.91580406664584   -0.64252292499517   -7.42295409080331
H           3.81874382275619   -2.00771378010276   -7.59461507120655
H           4.03013032248815   -1.24126512437924   -6.01289092990470
H           5.77149369494024    2.84855791253105   -7.64621634852401
H           4.24854830279331    0.85955545565356   -9.41473979466873
H           7.32742398289367   -0.70946758920509  -13.53254350454490
H           8.37231415942750   -1.33344396853592  -12.23545483709061
H           9.13172163435522    1.63666443224568  -12.57725045400794
H           8.59494416542410    3.66451442656828  -11.29395093879149
H           7.47668502194676    4.82777954075459   -9.69792044515013
H           4.50661957496002    4.11885367258325   -9.47897088757090
H           6.19767492196897    6.63166761854446   -8.96161411256140
H           0.18882785250613    5.66217269127372   -7.30470822320646
H           2.35533776466610   10.14109294517496   -6.97887346733755
H           0.23219820250499   11.12751007217717   -6.38803462911914
H          -2.20523846985764   10.93155267505141   -6.08263326296863
H          -3.30286476024674    8.73565601672484   -6.24364956007508
H          -1.97103334313863    6.70795765565367   -6.68721351558726
