118
 SCF done       -231.385073579781          0.000533573037
C           6.85809322456597    7.00184251062910    1.90079295178100
C           6.11371415808467    8.14612608568286    1.95661440291005
C           6.26440579292258    9.12834534927951    2.96115923176375
N           6.34851375057097    9.95451914014689    3.75202721498111
C           5.16535551844916    8.52370013244138    0.98538668275011
N           4.40953073697637    8.89754226789877    0.20532966319577
C           7.97926553528412    6.65816286477109    2.76095091709698
C           8.72939918477950    5.60658908767174    2.15134241027977
C           9.85887865088447    5.10066481322619    2.73024671576389
C          10.29491123838628    5.62748487958724    3.96561735160483
C           9.54086499355900    6.66561640296936    4.58853798854651
C           8.37644351549570    7.17072570533437    3.96802574509472
C           9.98341869181523    7.17655636784582    5.82602288925652
C          11.11661718932945    6.69015171335472    6.41902393864880
C          11.85876095725062    5.67010748856627    5.80416686070792
C          11.45681398248902    5.15000909688016    4.60380157076034
C           8.07865712399885    5.20234400155433    0.90069673406689
O           8.43828324270248    4.40059793421332    0.07213493190672
C           6.79483212755203    5.97557129197974    0.86978968500098
C           5.79143460183552    5.55419581528423    0.08046891643398
C           4.40743609408906    5.95243219767013    0.09202386098685
C           3.51277515529196    5.86102501938169    1.12841454318312
N           3.75080412340237    5.40711969422449    2.44485125330088
O           4.90606799511100    5.33161186594590    2.83258110041810
O           2.78021311418527    5.12207725379142    3.11657280672412
C           2.18368804256253    6.21353204715948    0.66157353282918
C           2.27250322599748    6.58912274664723   -0.62929984581299
C           3.65281970419695    6.49223521841433   -1.05690098027280
C           4.20072268081079    6.92713328647980   -2.23255549542528
C           5.50158411566897    6.61335732524664   -2.76316220372545
C           5.54278007732963    7.00465234602327   -4.05585618220554
C           4.29196723094191    7.64835499961326   -4.40201464161279
N           4.13996170674395    8.23180375928020   -5.67827788624543
O           5.16204391303354    8.46344127749614   -6.29578212450254
O           3.01959679090922    8.45720916465493   -6.10295759670482
C           3.47364728521624    7.68470025261083   -3.28791492831624
C           2.32125068314874    8.46429276672533   -2.98256133570875
C           1.35394858079949    8.85306935367080   -3.84736102981066
C           0.22886222106966    9.68960873696565   -3.53123145175305
C          -0.07780490092437   10.14361814622844   -2.24493813450521
C          -1.18679018466553   10.93541935762325   -2.00885779646165
N          -1.41666365554663   11.29548235010795   -0.62778632218653
O          -0.45572208872811   11.28539915142946    0.10895752143264
O          -2.54576936221725   11.57324397643072   -0.27785346961389
C          -2.04602952422780   11.34662904295407   -3.05660815585324
C          -1.71194764081527   10.88968988854791   -4.34610300519399
C          -0.62964435901772   10.08034712117604   -4.57514457692274
C          -3.15446552777057   12.23314073691254   -2.85165485649929
C          -4.15046185854591   12.44191660450224   -3.75288416762786
C          -5.24442245858777   13.31960337138588   -3.56063623273963
C          -6.49396739984963   13.20767416295470   -4.15703399010811
N          -6.90675388686106   12.31829874077556   -5.16905633689006
O          -6.08226713939111   11.56725255954628   -5.66589503190512
O          -8.07697467527465   12.36082005065304   -5.50124386030341
C          -7.40181217751394   14.13918417774632   -3.54303902810595
C          -6.74882410057209   14.81126345726316   -2.56064627736295
C          -5.36947947319634   14.40676099409913   -2.56215118503273
C          -4.33372127474318   15.06185262400101   -1.93820401025142
C          -2.99605518977782   15.17370128717903   -2.45217313646838
C          -2.33150993363109   16.09946714851511   -1.72165057359119
C          -3.18428564959104   16.57278315192707   -0.65953887121370
N          -2.66222880838966   17.51993242518684    0.24983722438197
O          -1.45395655368766   17.66078704507664    0.25405456495338
O          -3.42060244898792   18.16088810369904    0.95737388314391
C          -4.42244178156122   15.94172308921934   -0.74367610056772
C          -5.53065268527912   15.85048422849714    0.13781661692539
C          -5.75078664994960   16.56230571737563    1.27698934390513
C          -6.86173834529424   16.37985779341208    2.14656107054851
C          -8.16376246577049   16.17628388130565    1.80370432750405
C          -9.27148340856219   15.92772238901422    2.71511435183661
C          -9.17103745842042   15.57145433497709    4.03349565961117
C         -10.28025857825327   15.32350886369919    4.87062186123298
N         -11.14094022279601   15.11508303310846    5.60046489980720
C          -7.95966359621711   15.37918572671183    4.73227332376567
N          -7.01750457881809   15.18852368939284    5.35957243602002
C         -10.51007248390353   16.05126790126937    1.95796050828951
C         -10.18649555395388   16.33473611240558    0.59980452077666
C          -8.72949863991907   16.41702847147869    0.44604669603722
O          -8.12266116917177   16.69234846722289   -0.56815851928897
C         -11.14981785961371   16.49475003162315   -0.35574738527429
C         -12.50809250866100   16.37418690033482    0.00996772984047
C         -12.84170691123299   16.09864240247337    1.36837816374687
C         -11.82268365848704   15.94054001301530    2.33551417917736
C         -14.20125624605248   15.98556483242111    1.72326222556307
C         -15.18460159451355   16.13393169246629    0.78297412883779
C         -14.85481821887818   16.40287683303037   -0.55399991897534
C         -13.54491495596058   16.52049001767946   -0.93262770159548
H          10.41227404140063    4.30662671323631    2.25120106833208
H           7.81633796563155    7.94460451833548    4.46875163364328
H           9.41029406554372    7.96272659777637    6.29464800182769
H          11.44799360025828    7.08870492286634    7.36599433790504
H          12.74983211192144    5.29801300722778    6.28696139180198
H          12.02360642994042    4.36426649418842    4.12636594834401
H           6.04287752049086    4.75254140124988   -0.61067135436653
H           1.31225060956801    6.16287739019000    1.28564525825158
H           1.45756842757698    6.86958055566667   -1.26592704288246
H           6.28057069439940    6.10005573754411   -2.23806871774209
H           6.35028828071620    6.88829997929045   -4.75415535767797
H           2.27390719962364    8.77254558166976   -1.94634592832996
H           1.39982699567578    8.51829659023656   -4.87328195115573
H           0.53533779694183    9.87439112101987   -1.39763647808564
H          -2.32189552055138   11.19469926654434   -5.18083437394712
H          -0.41249590297411    9.74676079487446   -5.57866080349476
H          -3.22033087409248   12.72616443215212   -1.89282287832913
H          -4.21175126714146   11.83621254649298   -4.64710577238560
H          -8.42480607710984   14.25509100658158   -3.84703333895602
H          -7.15111261825079   15.62218170898215   -1.98532108808518
H          -2.64617796474787   14.69966465651797   -3.34792972883812
H          -1.33249408664361   16.46256001660267   -1.87373930000016
H          -6.24155867311291   15.07523682848021   -0.11199565172266
H          -5.01633343642217   17.28396217480421    1.61174685071295
H          -6.62503978405980   16.48900993960496    3.19968420344699
H         -10.87721518961808   16.70894766016728   -1.37856401680943
H         -12.10919631784116   15.73864542732538    3.35526908433360
H         -14.45086869078552   15.77716074071280    2.75314630382858
H         -16.22289198135481   16.04430569791935    1.06457546602669
H         -15.64365895541150   16.51654932373914   -1.28219114294222
H         -13.28483551315376   16.72780280834573   -1.96021941325635
