110
 SCF done       -217.286055249016          0.000696787591
C           1.76735551842079    2.92110866499618   -1.60000112284676
C           0.49210821525035    2.43775108322292   -1.45769445514374
C           0.06663818751295    1.18842907397738   -1.95630217132437
N          -0.33799851639897    0.19676149052615   -2.36757134855795
C          -0.50953325724813    3.09257897254553   -0.71310733428532
N          -1.33613978245622    3.58279718654455   -0.08550236536269
C           2.90786664648284    2.18153238363490   -2.12213287566766
C           4.10540196980630    2.84095024304660   -1.71613571875927
C           5.33841729517370    2.35372834400802   -2.04157472842828
C           5.43064530512116    1.16832791838306   -2.80445480477389
C           4.23697822417701    0.51183675486072   -3.22394300363397
C           2.97374912653658    1.03758375171388   -2.87120507367220
C           4.34411982006477   -0.66787298448860   -3.98841047565195
C           5.56951371984504   -1.17796294337652   -4.32085378470738
C           6.74376021812630   -0.53129910655850   -3.90692737989530
C           6.67577591014977    0.61678528105217   -3.16499970752393
C           3.76404428315035    4.05245404378770   -0.95758178502084
O           4.49828234715108    4.82501400484754   -0.39094701757373
C           2.27273485840603    4.17031635561330   -1.06431311970993
C           1.69541407574511    5.35750501111678   -0.76409436421426
C           0.38018555737556    5.83807158213970   -1.03683317111290
S          -0.35536872723704    6.86697307109796    0.14992740207441
C          -1.81753837791931    6.97900734631475   -0.76821443161837
C          -1.70439608844087    6.29378247806300   -1.97162059757706
C          -0.45736967690776    5.66226713992601   -2.12667289172843
C          -0.08564469696385    5.01451194166994   -3.42378768702047
N           1.35815889669024    5.17979682592935   -3.72106735220372
O           1.95655885522265    4.19614428643175   -4.08737294356522
O           1.82319933307136    6.28582320301168   -3.61647425062284
C          -0.85411317699609    5.70651651917779   -4.55588425902034
C          -2.34757868952437    5.56159334746639   -4.30794449656708
C          -2.78861971794138    6.24656599973326   -3.01236924832167
N          -3.93601934711889    5.46620370701985   -2.43396802645238
O          -3.84917422893625    4.26924496707083   -2.42152590542556
O          -4.86377552008308    6.10945933209750   -2.00403396584506
C          -2.94931676175039    7.70352361978036   -0.30709894093359
C          -2.96041688037111    8.51815925689669    0.77088949936823
C          -4.09283869928769    9.25166157086321    1.22490169182914
S          -4.07899253098160    9.82238810824980    2.86133950368139
C          -5.67615666847228   10.49033715836218    2.71435614992213
C          -6.17556636992086   10.27250180865513    1.43204680541954
C          -5.27790024472305    9.60198017373984    0.58583853360743
C          -5.55664594806511    9.44021213537889   -0.87880315400867
N          -4.36954140617406    9.83563590182585   -1.68433880667371
O          -3.73362770973323   10.78631289927829   -1.31109153520716
O          -4.15316067254247    9.20343278283873   -2.69164590883664
C          -6.67891422474271   10.39499446562601   -1.30807466644060
C          -7.88637237729923   10.19176393176337   -0.40564956321299
C          -7.57399634690903   10.63563711078477    1.02326782895474
N          -8.50556085303296    9.91021439077757    1.95295808755051
O          -9.10403682269503   10.57604576272717    2.75725875668173
O          -8.56812742964365    8.71402260686297    1.83858282066569
C          -6.29515372729684   11.17602315830486    3.78797719853739
C          -5.77520309838778   11.24766490868548    5.04075717154617
C          -6.38884654227402   11.93202711252999    6.11943370819994
C          -7.53898423174620   12.69066159670151    6.12794779625853
C          -7.78359506080595   13.15870764096709    7.45023643445142
C          -6.68073461945875   12.63137565758425    8.28344694631948
C          -5.85620986462582   11.91752352196846    7.47849370751179
C          -6.47845168454317   12.84215922012986    9.65261493867506
N          -6.26467525665803   12.98778677264055   10.77131353453030
C          -8.83136935351193   13.93523574430170    7.88192600200650
C          -9.14875669193184   14.30411280678380    9.22739724225857
C         -10.30322751277280   15.04333474449523    9.21637590818605
C         -10.74969781461994   15.19417370454545    7.84362637106918
C          -9.87933577222760   14.53332727691252    7.03438953826682
C          -9.95275964989297   14.49417891473078    5.63788238541043
N         -10.02966092656660   14.49877428542344    4.49141874822667
C         -10.98215595242533   15.57814087516658   10.35034487167409
O         -12.13617336012479   16.29160709554010   10.16901552557377
C         -12.52320100561505   16.63792602162658   11.41544662882303
C         -11.56024933911487   16.10578277907846   12.32464559932150
N         -10.61591487837587   15.44989601626131   11.58925326448570
C         -11.66669128771285   16.28203666653585   13.69666795693287
C         -12.77249060608895   17.00756292248786   14.10015242839890
C         -13.71875829060580   17.52815812134383   13.17225260292644
C         -13.63069141393824   17.36469488054189   11.80264556066664
O         -14.66771461172204   18.17836305989787   13.88911603097022
C         -14.27456951600586   18.03164070301683   15.17344294481238
N         -13.19511612861622   17.37036263873949   15.36192839305935
H           6.23289084878796    2.86733190235738   -1.72194661213211
H           2.08657485784977    0.52945302297553   -3.21480080576285
H           3.43750856307022   -1.16352874934728   -4.30289707076490
H           5.64105679273602   -2.08329014182044   -4.90480868484770
H           7.70228499233449   -0.94706659119842   -4.17916356846833
H           7.57648515481776    1.11909374596841   -2.84389103404453
H           2.34212566756356    6.05409871786567   -0.23733135382221
H          -0.29157909160206    3.93625291629664   -3.42715052910135
H          -0.59607086247155    5.24908969219269   -5.51243160667159
H          -0.56995847579833    6.76113690583650   -4.58330132604527
H          -2.58756791556321    4.49685109408929   -4.23616050700212
H          -2.90078222113829    5.98252815952075   -5.14778441361378
H          -3.17195223608338    7.25779633204789   -3.19242365233667
H          -3.85812636381115    7.53779583174649   -0.85885338454989
H          -2.06641193474661    8.61036234114542    1.37409962990841
H          -5.81511261571472    8.41037657733868   -1.15168416252829
H          -6.95038633131578   10.19691882939341   -2.34567685359642
H          -6.32453476586960   11.42618303281296   -1.22846881305027
H          -8.14843875458071    9.13051441022032   -0.39227123308483
H          -8.73809792154277   10.75454366878612   -0.78875990241736
H          -7.76234168306312   11.70385715169004    1.17258738054567
H          -7.24020883026537   11.66032817608434    3.58969614917259
H          -4.84166191296874   10.74011730624164    5.25208906050556
H          -8.17829859297581   12.89081230796251    5.29175885931437
H          -4.95525964215563   11.41096827632126    7.77302629329081
H          -8.59327959384504   14.02948590771681   10.10136281216016
H         -11.62186605322628   15.74390725123397    7.54271286929746
H         -10.94597696027352   15.88396841927612   14.38798828138690
H         -14.35244005612474   17.76227790712863   11.11054445263916
H         -14.88348247779095   18.47189579198625   15.93877764635121
