103
 SCF done       -187.598920878369          0.000692450854
C           0.06952999277106    0.23889257061009   -1.33315449164721
C          -0.99770317438464    0.96927298576349   -1.77817740002646
C          -1.75240929603608    0.63086184819436   -2.92139875469001
N          -2.39274001125722    0.39819532696025   -3.84460160290151
C          -1.52839319931589    2.08886740912183   -1.10339851209742
N          -2.03744881865126    2.97071716918963   -0.57391786673207
C           0.49728021988217   -1.04647846263781   -1.87160318635343
C           1.27173162931567   -1.72091591548530   -0.88192569781114
C           1.78081633066791   -2.96938101057404   -1.09883610795896
C           1.54307899129200   -3.60508959089618   -2.33796146358443
C           0.78441039992063   -2.92862637138161   -3.33720511950462
C           0.26483082999755   -1.63891230969764   -3.08406829785884
C           0.56163976812519   -3.57127801134377   -4.57216062007303
C           1.06013495715809   -4.82299128166051   -4.80966746093562
C           1.80608156946523   -5.48870610379690   -3.82523213557821
C           2.04211688351122   -4.89311481067673   -2.61608576760733
C           1.41162668589061   -0.85606787231391    0.30191917766729
O           1.94069205298395   -1.10881923312780    1.35848405965923
C           0.81069694887887    0.45394542330352   -0.09997882803859
C           1.10442250923265    1.56789243929182    0.60436429919500
C           0.93353870755011    2.94599454724071    0.20560768527021
C           0.65096850319533    3.91261420191943    1.19308767578585
C           0.45538773406427    5.23859088249833    0.89182179482891
C           0.58318911430097    5.61592294485425   -0.44270333564130
C           0.90946778791089    4.65098764314978   -1.42786889416152
C           1.08494940018595    3.31892344793384   -1.13090175433017
O           0.98417896001885    5.28711019836994   -2.61251263077632
C           0.69842327281715    6.58389873183923   -2.32554121805606
N           0.46185935057758    6.82187631655474   -1.06381354041788
C           0.68622016107587    7.51079700670871   -3.40894712175273
N           0.39674096564071    8.84424986806259   -3.29676606069388
C           0.01037094615112    9.54856987075854   -2.09756256502727
C          -1.46749932022099    9.34532473580107   -1.77984112739819
C           0.45323357603325    9.48715553130545   -4.54736440515252
O           0.23578108641995   10.67278279919343   -4.70325183321630
C           0.82152789070970    8.44070879725001   -5.47466453829291
C           0.96215167025824    7.23434797741735   -4.73915440118802
C           1.34535149661843    6.18297526524538   -5.66240730741361
O           1.58263157892558    5.00617063932545   -5.51745725144016
N           1.40058671388296    6.83756357092438   -6.91261261865523
C           1.79123946223864    6.12936675023112   -8.10762862539757
C           3.24652951255370    6.40242662426693   -8.47946981798266
C           1.09396566239137    8.17273585343093   -6.81433449543003
C           1.05418710609071    9.05187542112571   -7.92731752847441
C           0.71989474643910   10.36119621022188   -7.81952469451326
C           0.66307167546948   11.20630773906823   -8.96007590683988
S           0.11854792261094   12.87336228511987   -8.87828929610725
C           0.39127132914215   12.91107552829004  -10.61401033631756
N           0.84002105293937   11.77256880530775  -11.07248409466336
N           0.98554986622955   10.84625486738164  -10.17666070609105
C           0.11217325030498   14.06110021084930  -11.40445853004584
C           0.34977982180581   14.08359426131759  -12.73602401311492
C           0.08406963913493   15.16631376986330  -13.62130209901017
C          -0.91849071008053   16.08593946220592  -13.55589998890851
C          -1.11473206242960   17.16580517571722  -14.51290158502102
C          -0.14738299661307   17.72355919405105  -15.30497403185380
C          -0.37948465069900   18.79335745691456  -16.19506073811183
N          -0.51168349557454   19.65686564493199  -16.93960456381271
C           1.21124902117667   17.34066995280977  -15.30542098846884
N           2.33288470551697   17.09912892271703  -15.34244712278287
C          -2.49731503898063   17.60939545228479  -14.41064989920316
C          -3.11573612453632   16.90961289282256  -13.33578674450209
C          -2.14481218961240   15.99420689532770  -12.71132152092856
O          -2.33942096360992   15.29748109116650  -11.74005477600808
C          -4.42149301487057   17.11846334694713  -12.99572526576884
C          -5.18397925205319   18.05134089168616  -13.73322652848880
C          -4.57450328983373   18.75005031815198  -14.81568264992194
C          -3.21934754149289   18.51535536406682  -15.14213249462248
C          -5.34768098247323   19.67354772954298  -15.54851053087162
C          -6.65889840545742   19.89838306432457  -15.22848096197107
C          -7.25742959703656   19.21099665554655  -14.16186393600645
C          -6.53555740313419   18.30787575173798  -13.42965516940401
H           2.35938104001945   -3.46631004628848   -0.33432647887991
H          -0.29523711553390   -1.14288104914780   -3.86143377817946
H          -0.01555341373449   -3.05560820426245   -5.32546557663232
H           0.88216168841592   -5.30784916170567   -5.75779734558847
H           2.19305074089577   -6.47561103827156   -4.03023393211542
H           2.61597596638444   -5.40079944775106   -1.85468406079922
H           1.57756966144995    1.39902092482371    1.56676795933804
H           0.55309988021936    3.57915291537101    2.21520509702215
H           0.21481820863050    5.96669015515722    1.64836252069012
H           1.35338932612404    2.60934287467934   -1.89702018633797
H           0.21033610119851   10.60629201294934   -2.28882016127978
H           0.62254020063660    9.19158654965255   -1.26802971148671
H          -2.08122984089625    9.66742333739675   -2.61767528221185
H          -1.73504584010879    9.93030461170740   -0.90501328333310
H          -1.66556506194843    8.29754948432433   -1.57149609231710
H           1.12287391930842    6.40058788084492   -8.92916205559682
H           1.66262555327374    5.06679614554393   -7.88285718930234
H           3.40893143253359    7.46096439613887   -8.66889565594865
H           3.50763784599193    5.84346874798541   -9.37362943234756
H           3.90161151543475    6.08960628547706   -7.67004929606974
H           1.28527239119756    8.66111810068018   -8.90736550743861
H           0.47519793714348   10.79755548133862   -6.86100807785272
H          -0.28565183059641   14.91782224753353  -10.88522830069236
H           0.83791547276638   13.22041125496470  -13.17048814476249
H           0.73317791972713   15.20293311241397  -14.48954702804361
H          -4.86723698982082   16.57705778064011  -12.17448411999270
H          -2.78748260623254   19.05300306308980  -15.97142156416466
H          -4.88201629087631   20.20157273037546  -16.36762799196970
H          -7.24259803497804   20.60770216461097  -15.79576387416726
H          -8.29339329111860   19.40027593723194  -13.92372407624113
H          -6.99094841612930   17.77553795198211  -12.60745850036334
