102
 SCF done       -187.501562347212          0.000769620028
C           0.96567468076208    2.67445573369778   -5.27183218728459
C           1.45816689234851    3.49280125298081   -6.25453942000738
C           2.15574802581177    3.02738556321072   -7.38994509468953
N           2.72489378984858    2.71885330839862   -8.33788919705204
C           1.39589647765513    4.90269146453037   -6.26981796139850
N           1.41412274753304    6.04869095500009   -6.34711786157042
C           1.14789551860274    1.22982667113860   -5.21671647886699
C           0.66942880536780    0.76419589313124   -3.96023917670067
C           0.72574246182910   -0.55344228291582   -3.60722623086055
C           1.26860575621640   -1.48671111291415   -4.51792470696564
C           1.73961284906660   -1.03114815527550   -5.78332789827983
C           1.67151987324374    0.34060058848492   -6.11810767556879
C           2.27443002276785   -1.97174324837705   -6.68715928441876
C           2.34344693776136   -3.29805388202704   -6.35788825391200
C           1.88075617059757   -3.74512202600928   -5.11113952780132
C           1.35487757477225   -2.85880610686916   -4.21067276233815
C           0.14009993479167    1.89477231332511   -3.18069612337507
O          -0.30735740496147    1.83098827782022   -2.05449432826118
C           0.25714375588724    3.08305862552746   -4.06518385626029
C          -0.27992661358892    4.32693299680840   -3.89645115092716
C          -0.95742364840519    4.91488539190395   -2.80397133590816
S          -1.59271304110635    6.53099176902098   -3.05304280758242
C          -2.18316156327263    6.62835241532141   -1.43328893943415
C          -1.89060467196975    5.44686527414530   -0.73937609718972
C          -1.20643976317024    4.49798592311109   -1.51163220694724
C          -2.21996534227238    5.18514130191276    0.60214221273228
N          -2.46347884697281    4.92758140148176    1.69387438675928
C          -2.84128588826172    7.81800325599544   -1.00985994329812
C          -3.30873471811195    8.04115264319888    0.23630590013359
C          -3.95404724038519    9.23968632908393    0.71617123769226
C          -4.27575852535166   10.32152167020278   -0.11178918711622
C          -4.87529680796952   11.47886144777075    0.37777612251153
C          -5.14500110780871   11.53323762111344    1.75566870567296
C          -4.84860801070634   10.45143364452194    2.60561417132840
C          -4.25925550447035    9.31450215357798    2.07983693056179
C          -5.22492020672475   10.72092484474277    3.97113704948260
C          -5.79199486009021   11.99659851717136    4.11475752270278
S          -5.87596869882585   12.86802491055824    2.59745932301819
C          -6.22549340877103   12.46688206991735    5.34258539108987
C          -6.08945282264069   11.64328722518485    6.44392782811046
C          -5.53131749060066   10.37455855728696    6.31950956310096
C          -5.09902804318509    9.90903925780053    5.09436048543289
C          -5.21749935607056   12.60592899130579   -0.45271055700367
C          -5.25789940898941   12.62305063595622   -1.80059010261732
C          -5.62419319991642   13.78167429324649   -2.54180175637818
O          -5.89488742178503   14.95008452289454   -1.93274553098045
C          -6.22616305777841   15.86298601765737   -2.87354336923470
C          -6.17000105043931   15.27164919984142   -4.13641805063566
C          -5.77581976626183   13.92283417054129   -3.92164213275694
C          -5.57702901719242   12.92070989445276   -4.87972965915685
N          -5.40679326066329   12.08574026136695   -5.64687483208529
C          -6.43995049967119   15.89222500236249   -5.36324559235833
N          -6.65610485659540   16.40436752036444   -6.36561394266653
C          -6.55101733179721   17.19507024395172   -2.51671643885394
C          -6.49347989517278   17.65080278674431   -1.23806500067165
C          -6.81015519659215   18.98808003281876   -0.90205327759446
C          -6.70269398144308   19.51558080845356    0.35184978752914
C          -7.00124393722113   20.88105309177593    0.74921210654221
C          -7.64113971119709   21.83291314706450   -0.00064056310507
C          -7.92468883471665   23.13806666410038    0.45534417558853
N          -8.18388615704057   24.21276596299047    0.76448239063478
C          -8.13705534471969   21.64949407267916   -1.30893831941062
N          -8.57884544451546   21.57562807247467   -2.36627882423128
C          -6.54277312054034   21.05376253124753    2.12283548055871
C          -6.05343374927087   19.80461906665046    2.60100575249227
C          -6.16657343975744   18.79199344236068    1.53862242562174
O          -5.86914958451013   17.61871300282319    1.62221739846229
C          -5.55602883076160   19.65996999480747    3.86433455512446
C          -5.51752785110239   20.78121838130473    4.72254969398120
C          -5.99850712215391   22.03645584872166    4.24961496879596
C          -6.51246541730391   22.15455227915408    2.93808208777680
C          -5.94887677600450   23.15111153535270    5.11143426099753
C          -5.44861164065707   23.03353843221207    6.37957437808965
C          -4.97567608818222   21.79711112983024    6.84434354067432
C          -5.00996332271305   20.69490574865072    6.03388060544383
H           0.35941631130663   -0.87867867623443   -2.64476484431037
H           2.03213786536604    0.65143451413178   -7.08555699373681
H           2.63097042266364   -1.62247113824442   -7.64505309776139
H           2.75552905284575   -4.01051309316140   -7.05667690692319
H           1.94293752857963   -4.79527589846247   -4.86793942083818
H           0.99693537997144   -3.19706380534292   -3.24925986345989
H          -0.19411002970847    4.99952595424320   -4.74235995751160
H          -0.90586843141730    3.53570112761791   -1.13763472227100
H          -2.93459383231498    8.57424127496501   -1.77723161005219
H          -3.18409218838765    7.26664889582677    0.97972520099430
H          -4.04406997655331   10.26738430982492   -1.16243080141884
H          -4.02344244559058    8.48252748252708    2.72588726053346
H          -6.65802279826851   13.45136346899093    5.42927644603539
H          -6.42118071513424   11.98885755736601    7.41115819160329
H          -5.43631257961673    9.74800532899490    7.19322519946230
H          -4.66721109064759    8.92447644727789    5.00164469612415
H          -5.48951064458104   13.50989772275200    0.07841290546925
H          -5.03769302961581   11.75120107804514   -2.39870082036878
H          -6.84296205902445   17.84596180561691   -3.33033802265074
H          -6.18831227068611   16.98298123547266   -0.44552368254013
H          -7.13953944071334   19.62299571536700   -1.71487163914499
H          -5.19223523985923   18.70109938187864    4.20296316743624
H          -6.86369039290781   23.11961074894312    2.60942602176298
H          -6.31479210093840   24.10058446775834    4.74921302788378
H          -5.41427357437641   23.89312728443980    7.03191092378055
H          -4.58351452543737   21.72273070286443    7.84759913141259
H          -4.64654356736017   19.74056486573203    6.38618741545396
