116
 SCF done       -214.757580206498          0.000606742836
C           2.03215235111866    1.31430263175216   -0.80433324317569
C           3.26749783393525    1.90042311640498   -0.74103231937812
C           4.48347993357936    1.18463225146674   -0.78623036128985
N           5.50639625497515    0.66479341271031   -0.80871750623278
C           3.51499603032038    3.28470305349508   -0.62026552887243
N           3.79894952649923    4.39198728271496   -0.51251595877905
C           1.77157049977160   -0.10990097188647   -0.96345063298762
C           0.36456696562469   -0.31182229461753   -1.05246856671141
C          -0.18044325289457   -1.55351447311867   -1.21084266613256
C           0.67474556521636   -2.67428392210116   -1.29174750787171
C           2.08402603029198   -2.48284452565986   -1.20092517286909
C           2.61837157292937   -1.18484136665342   -1.03510339195511
C           2.92824747628941   -3.60919677203311   -1.28007010085691
C           2.40765890143465   -4.86431739920374   -1.44191039969956
C           1.02012307010928   -5.05137152742360   -1.53177459310989
C           0.17213006156629   -3.97961038393493   -1.45893053883594
C          -0.32283839640035    0.97924486438285   -0.95310496936315
O          -1.52226858556385    1.17339201244043   -0.92230400223426
C           0.74766513117275    1.99931707998797   -0.79652355687499
C           0.54279316313460    3.32216811774632   -0.55327787186090
C          -0.66875210514492    4.05885252160598   -0.67672717531885
S          -0.90365939649618    5.38001008827857    0.43456217317251
C          -2.41793950698248    5.80264907159129   -0.29093197209252
C          -2.70490907343894    4.95981108854514   -1.36111715291351
C          -1.71268348643647    3.99438640212820   -1.59020391523898
C          -1.77555390200465    3.14519494532070   -2.81997132813028
N          -0.41804616114476    2.88120058845630   -3.34651666669347
O          -0.14180979961560    1.73919691466889   -3.62595903047110
O           0.31561846855738    3.82869373870565   -3.48584625403458
C          -2.55864913915250    3.89750634510363   -3.90133325187534
C          -3.97288158607973    4.16551982869050   -3.40444775374094
C          -3.97830526488937    5.02762539331980   -2.13742657179115
N          -5.14098803904716    4.60542727128983   -1.26049711618943
O          -6.09545096356646    4.14640371538269   -1.82905113964775
O          -5.03958907845886    4.77086065915641   -0.07445517452196
C          -3.22911613575323    6.87451869411015    0.14014885677714
C          -3.07188908131673    7.62506388611616    1.25932637144600
C          -4.02809967991143    8.62484428866781    1.56688050757286
N          -3.99612148617167    9.42395256019045    2.67872990913470
C          -2.95012440005717    9.47332673730307    3.67105398653534
C          -1.72313753111717   10.22688081916509    3.16399898144574
C          -5.12119770629212   10.27758751496873    2.75336520494567
O          -5.30269278003019   11.06506742157169    3.65251976026969
C          -5.88833674678177    9.94726176206312    1.56858361725912
C          -5.19116510318892    8.94392181752355    0.85718751042955
C          -5.97886946592864    8.61396037689642   -0.30431126364751
O          -5.78022692805894    7.83544149024099   -1.22703777565046
N          -7.12332216354524    9.41519319367761   -0.20757308265401
C          -8.09389948286810    9.39275596893005   -1.27629947021448
C          -8.04870482152066   10.66453249275794   -2.11860084056108
C          -7.08675614013796   10.22247349763408    0.91464383607980
C          -8.04947385288331   11.13959991848369    1.40828784916455
C          -9.32400151555518   11.35031963978249    0.99528795705031
C         -10.17300252956101   12.29639945483504    1.62767508534885
S         -11.86303936711704   12.47449224505453    1.16123292598203
C         -11.93348827967636   13.72734441238343    2.40211740199882
N         -10.78629705456041   13.89085257817661    3.00134638000128
N          -9.83487921206677   13.11772696621026    2.58551233528321
C         -13.12907369879471   14.43873939545618    2.67791222131899
C         -13.20944801236753   15.43977063225039    3.59009851237254
C         -14.43728386850063   16.10642871122318    3.82833706150613
C         -14.61708195328166   17.14237019417464    4.69582127251619
C         -15.86272397849428   17.83998472662297    4.96942123632315
C         -17.10316814066972   17.53760340465860    4.46986377446931
C         -18.27945324532832   18.25108202333941    4.78495567382353
N         -19.27443223929362   18.78366676118639    4.99553484118470
C         -17.40405998841660   16.48070951450971    3.58526305177051
N         -17.73872168738581   15.64582810345653    2.87087979205955
C         -15.56984833598088   18.92481604300030    5.89895892860044
C         -14.18371988945511   18.88817041501051    6.22369102510131
C         -13.53749277693663   17.77621542473433    5.50568531217560
O         -12.37027423610309   17.45852505622901    5.56208962438166
C         -13.61721471473071   19.79070673429028    7.07698033752470
C         -14.42627271274450   20.79344542365738    7.65613293071964
C         -15.81415367885696   20.83855094035693    7.33608498916253
C         -16.37249388596501   19.88973210948410    6.44978383344535
C         -16.61287352278276   21.84438055895926    7.91789104847211
C         -16.06851364983073   22.76231256592915    8.77410078290569
C         -14.70175471210305   22.71720045145193    9.08805356253610
C         -13.89821256420137   21.75364606099745    8.54135619933022
H          -1.25095464357387   -1.67820574958559   -1.27736531701914
H           3.68891054598733   -1.07488692647554   -0.96729618611874
H           3.99581925189536   -3.46028321955822   -1.21155638261314
H           3.06257477361975   -5.72055991002944   -1.50191318929485
H           0.62668164700898   -6.04879532574736   -1.65896989567246
H          -0.89700076519139   -4.11751679645174   -1.52767845915698
H           1.37332403106336    3.90528568752903   -0.17492800593427
H          -2.23295989104464    2.17045042980231   -2.60718652819624
H          -2.60092833897526    3.29761515570721   -4.81180013431017
H          -2.04347450641342    4.83489028734806   -4.12496011284526
H          -4.45905854718659    3.21085587116620   -3.19053417359358
H          -4.55198733881527    4.65406817224509   -4.18728673639274
H          -4.21709656790639    6.07183875519564   -2.37672798741471
H          -4.07603723955286    7.09896313070344   -0.49171404379132
H          -2.25190930252638    7.44372624061034    1.93898496774657
H          -2.68464119375007    8.45633624402474    3.97316347417730
H          -3.37519611782230    9.99808716617607    4.53112798047365
H          -1.30475401913260    9.74472684166448    2.28319399889721
H          -0.96379957644731   10.25667687627313    3.94022218611069
H          -1.99479666240257   11.24719160248465    2.90498280807855
H          -9.09290544313830    9.21378714043727   -0.87152769464905
H          -7.82225837281144    8.53331558740427   -1.89721577265411
H          -8.25153552124670   11.54578271617601   -1.51471772941598
H          -8.78810633767440   10.60519729319215   -2.91254638178373
H          -7.06498616153808   10.77565075888180   -2.56841953303698
H          -7.70342902402801   11.71180599186936    2.26018257952759
H          -9.77444778218140   10.80066809814604    0.18516709049420
H         -14.00466757356622   14.14348871224327    2.11354100888753
H         -12.32950052497272   15.73463828038284    4.14209029541281
H         -15.28817126388338   15.74927310642372    3.26124790517824
H         -12.56305298458538   19.73953485478992    7.30572920762501
H         -17.42562652303167   19.95391542019204    6.22727823003089
H         -17.66451957378948   21.87475408681940    7.67318619385087
H         -16.68832165873750   23.52887923012745    9.21451035539528
H         -14.28898009449328   23.44989419124152    9.76528500217075
H         -12.84534484242277   21.71382825260772    8.77933014166775
