112
 SCF done       -203.385451395034          0.000355244277
C           4.00618036409716    4.04766181696272    0.35197640264586
C           3.95658661837476    5.25096096804356    1.00384301498815
C           4.96779901823655    6.22947988342526    0.91760694390860
N           5.75453591699758    7.06299301462410    0.86100061098339
C           2.93235766093643    5.60154455560030    1.90844780755699
N           2.14127654393528    5.90217157862810    2.68377917338922
C           5.16830259932617    3.50533628997939   -0.34008497959728
C           5.03463714151501    2.08658530169782   -0.40446355648103
C           6.00842942562798    1.30012922598463   -0.95001787833013
C           7.17332547233819    1.90684050740976   -1.47107886998555
C           7.30291600446386    3.32573341800824   -1.42743455737280
C           6.28112568832336    4.11566339135577   -0.85293813429635
C           8.46824713087727    3.91788046856548   -1.95535561964778
C           9.46166701782912    3.14752425180225   -2.49554927504623
C           9.33462780738164    1.75083598931576   -2.53572970562746
C           8.21499534855293    1.14385997596250   -2.03490894486857
C           3.74414040061037    1.68620295022813    0.18399566328091
O           3.30686598811437    0.57267385825003    0.34449857215369
C           3.04020823354130    2.97305150191846    0.48026964420939
C           1.70360163768284    2.97964387837902    0.70152778231669
C           0.79548541610710    4.06869493828724    0.62134824358875
S           1.01712832332050    5.46936538970120   -0.41330774629420
C          -0.42096105996441    4.17858909570114    1.25241816256148
C          -1.20033271245105    3.36506474082063    2.20536335963511
O          -0.95174413453207    2.29316814600201    2.69334280566846
N          -2.35031281064070    4.10779932447810    2.43273420982857
C          -3.42456166173184    3.65838589181962    3.29296862317556
C          -4.46601378891149    2.86735220685738    2.50934075937861
C          -2.40661073926978    5.30231120157881    1.72303553290533
O          -3.33746801001866    6.06701773544950    1.74429233342834
C          -1.13554873336803    5.36108409923747    0.97561888834578
C          -0.50297974030240    6.19637907846357    0.07586352952997
C          -0.86767312273080    7.45445483665957   -0.46955670177769
C          -1.86835291011456    8.22015521969762    0.03269057188973
C          -2.30611285308029    9.49626665924844   -0.41172568492382
N          -2.14502115508861   10.10136790809010   -1.64042116278310
C          -1.60466441344247    9.54185724566226   -2.85728622642758
C          -2.43041003834270    8.36699757459268   -3.37171461477051
C          -2.75284805383079   11.37277357133096   -1.67524490733062
O          -2.76312185787085   12.08093678641818   -2.66325875857442
C          -3.28853526715174   11.55948012482283   -0.34727629169441
C          -3.00936679842637   10.38764914079913    0.39351745465903
C          -3.50537432093121   10.57507241087575    1.74305202994485
O          -3.48389487063212    9.87658887032685    2.72882692731609
N          -4.08392841982091   11.86498637099939    1.71307586342292
C          -4.65927111291914   12.44998092684760    2.90008999109729
C          -3.70256224562430   13.43488779757018    3.56753960952802
C          -3.95718279709805   12.46012385504775    0.48368177628419
C          -4.45802806017232   13.75085730259816    0.17856965713155
C          -4.37080023047349   14.30023825754463   -1.05868043027024
C          -4.89610237563212   15.58998083906869   -1.33481410388935
S          -4.93970104274337   16.26435681347436   -2.95485810803742
C          -5.69517945703698   17.66853689598427   -2.20536530016038
N          -5.83188657883936   17.52790914270794   -0.91264613182580
N          -5.40435378546462   16.40025129564604   -0.43956231300342
C          -6.12332700895279   18.81973029735361   -2.91425047778375
C          -6.08940228569464   18.93676327095922   -4.26385243486389
C          -6.55118873167982   20.10283457037024   -4.92455738355628
C          -6.61561889590811   20.25259012433958   -6.27813198717298
C          -7.08600083995810   21.42044486376756   -7.00538279282743
C          -7.42204371534799   22.63863565041927   -6.47533448307018
C          -7.85840625880842   23.74099649075834   -7.24115806856631
N          -8.21986167117388   24.67524505146416   -7.80175236574404
C          -7.36885523678889   22.98611257334353   -5.10884925193559
N          -7.34941217253715   23.35247135494728   -4.02061819267665
C          -7.10993458032675   21.08110180691928   -8.42356677363069
C          -6.61686645887135   19.75481971924598   -8.58486595754773
C          -6.26688807925860   19.19547808422944   -7.26937443766167
O          -5.80126711228819   18.09748518824279   -7.05085253521731
C          -6.52508321976614   19.16136100345561   -9.81100131797100
C          -6.93231049853340   19.88032877273109  -10.95646494114541
C          -7.42830468589907   21.20762426391890  -10.80474373044657
C          -7.51067614704171   21.79588739210958   -9.52208842330790
C          -7.83346362433626   21.91623505738660  -11.95438130133169
C          -7.75374917685118   21.34290343105060  -13.19420017494109
C          -7.26632662688936   20.03556983568572  -13.34207965577953
C          -6.86412610050423   19.31990414437514  -12.24713998105264
H           5.89382641474070    0.22680967773124   -0.97982551388162
H           6.39894092479993    5.18807891242454   -0.83856886036231
H           8.56321879152586    4.99313078159215   -1.91819647512016
H          10.35206932026747    3.61024242951008   -2.89390828971579
H          10.12849098268733    1.15840998964431   -2.96522949502170
H           8.11195765132880    0.06903631756582   -2.06288738974915
H           1.24832162810063    2.01921187525421    0.92775271222847
H          -3.87841579496445    4.54597857834388    3.73976705294987
H          -2.97759424782127    3.03548631683624    4.07099513335370
H          -4.89862014542034    3.48786868485148    1.72787890209817
H          -5.25906600481205    2.54328057747100    3.17693272259659
H          -4.01029218021433    1.99005392828167    2.05578325759158
H          -0.24783233476074    7.79721076728453   -1.28486754779037
H          -2.39274052189014    7.87700847965141    0.91621275988048
H          -0.55974367274792    9.25604264465500   -2.71091074187270
H          -1.63407969121283   10.35856037461441   -3.58564828495388
H          -2.44705669395798    7.55201772299298   -2.65211061524734
H          -2.00606069958798    8.00302977582130   -4.30337825794521
H          -3.45324429387639    8.68546758337999   -3.55741164714259
H          -4.85929217642922   11.61614413658076    3.57889775197560
H          -5.60509410885097   12.93648323937600    2.64740542321987
H          -2.78229801599388   12.92717530344356    3.84589914658727
H          -4.16091726973678   13.83980090099092    4.46527858993772
H          -3.45788663794772   14.25689064401572    2.89866783799738
H          -4.94358349806486   14.31888437579620    0.95845619984777
H          -3.90436757150302   13.76570848334319   -1.87463030219597
H          -6.51037924900245   19.61933618752953   -2.29590830428706
H          -5.71529435746053   18.12344910360570   -4.87043428285536
H          -6.88614388049196   20.91169653594920   -4.28767324703125
H          -6.14777008447803   18.15375933544870   -9.90410282267817
H          -7.89487264976889   22.80025068931595   -9.44235454641229
H          -8.20780577962307   22.92241408571867  -11.83557800984813
H          -8.06615441271879   21.89383291640587  -14.06859571879497
H          -7.21139894448551   19.59852846550434  -14.32789744345033
H          -6.48817227038102   18.31296271209276  -12.35448896649542
