105
 SCF done       -192.209697275458          0.000597881634
C           4.42677103689828    3.17365061395960    0.94571976511409
C           4.66400259257265    2.01806277120076    0.24748081079988
C           5.88440966175636    1.31058532959899    0.28442710097119
N           6.84784876321938    0.68644235402028    0.27137554280419
C           3.74087857693610    1.35401679499614   -0.58692443628948
N           3.04788271017024    0.75329153193896   -1.27879995479508
C           5.37925671846706    3.83118403721176    1.83503902563123
C           4.74059875511488    4.95467687760747    2.43447076447562
C           5.38733053992603    5.77128821629371    3.31660708372444
C           6.73406543383858    5.49887789770710    3.64499238448276
C           7.38225773454985    4.37854579373512    3.04955075580561
C           6.68414019025503    3.54937100412132    2.14099931010362
C           8.72685639133211    4.11722321307242    3.38181686620202
C           9.40066456015755    4.92313332120574    4.25908559796235
C           8.76160389986658    6.02628569358386    4.84403113786276
C           7.45621077811886    6.30782821753147    4.54389783680403
C           3.36183495739976    5.04652563715004    1.93714311296328
O           2.52753621616951    5.87478580668702    2.26119590878596
C           3.19851123040393    3.94925206365493    0.97144954049703
C           2.09627356447350    3.73691685814499    0.18841632757305
C           0.87739278471687    4.43763243339141    0.13234663825774
S           0.37306262871731    5.77780546447170    1.12997086589862
C          -1.15124951975328    5.88351972436916    0.31207864069218
C          -1.25536420898700    4.91275842020865   -0.69857467512323
C          -0.11957081155550    4.11007684988282   -0.78159598173639
C          -2.36227977721003    4.71949851791204   -1.54321293580399
N          -3.24483808805152    4.52578719233877   -2.25083352231235
C          -2.06388612654096    6.88482698899663    0.71946091187699
C          -3.23984954130769    7.18852690319819    0.11026043900575
C          -4.12991476262300    8.20301410180427    0.53803290975769
S          -5.51529453154046    8.57053501582857   -0.48298376323166
C          -6.01855287267438    9.79335731968855    0.61755913055979
C          -5.14320848372187    9.88650585281556    1.73094889194885
C          -4.07978235346750    8.99166476702100    1.67818150414983
N          -5.57571718970406   10.87211114715047    2.57875129974528
C          -4.98160605475209   11.23791571856628    3.83439607160843
C          -6.71634520197603   11.40249385738379    2.03556129566872
C          -7.00749595406291   10.75254804404331    0.80569548479254
S          -8.41081353350485   11.40634165876022    0.06067131839531
C          -8.60942238607373   12.54181146733095    1.39566002874312
C          -7.62312540039710   12.40144016694420    2.36514384900289
C          -9.68485815070441   13.45164142556948    1.33822869064353
C         -10.01536451721361   14.34742696369680    2.31224997211754
C         -11.07234756194946   15.27831917678751    2.20587832771847
C         -11.89868347898269   15.54873700935403    1.13043104247903
C         -12.78331264611888   16.59997546639080    1.47001157454297
C         -12.47899494599912   16.96141677909432    2.87381458167862
C         -11.45885858047264   16.17323392363320    3.29218603726911
C         -13.13913986771116   17.89994325356032    3.67604748947561
N         -13.65786014087474   18.63210632531890    4.39318177934932
C         -13.71436146367891   17.21361079987912    0.65901229776882
C         -14.50686806980351   18.35353975570672    0.97587852571258
C         -15.27702611038760   18.68759449402537   -0.12020842209385
C         -15.00487410301682   17.71160611147718   -1.16506192967302
C         -14.05649975569208   16.84307126271320   -0.72222145735299
C         -13.52156200628644   15.78230428986891   -1.45984764958017
N         -13.09492964586209   14.91707367170791   -2.08455254999252
C         -16.23768614561369   19.71688487244043   -0.28240427786708
C         -16.35396435052889   20.88505449319902    0.41507703305290
C         -17.45039521689470   21.82941911851617    0.29170319633245
C         -18.64758917062759   21.61490499268277   -0.34310912406132
C         -19.68569738262716   22.56723452789745   -0.41422462979109
N         -20.56715737392989   23.29607365822544   -0.51602945580938
C         -19.03113803125956   20.42611087707687   -0.99816030255366
N         -19.42996057205295   19.49390841705993   -1.53837365079246
C         -17.09345596718648   23.03392767560344    1.03151295091829
C         -15.81404847410232   22.83843894703422    1.62293277411055
C         -15.30105092773226   21.50347338361215    1.26962881055243
O         -14.21197578428499   21.05800739576105    1.55619079020067
C         -15.21804453006656   23.79492054261001    2.39272526597431
C         -15.89151426035772   25.01658591563147    2.61509810670719
C         -17.16936224520877   25.22494832278688    2.02037188003536
C         -17.75873548632405   24.21619402159105    1.22421035292057
C         -17.83074164835363   26.44956149612796    2.24528221499587
C         -17.26069037272803   27.42080520844146    3.02238340465269
C         -16.00336232052053   27.21348098678800    3.60919252714398
C         -15.33342245415394   26.03696870464983    3.40986193295984
H           4.87864798706782    6.61646881578995    3.75621292653287
H           7.20615784118789    2.71211587889756    1.70625775993669
H           9.21478596098185    3.26658666313428    2.92914054613230
H          10.43060067803086    4.71466239640641    4.50679821834509
H           9.30843289718313    6.65208787052964    5.53333371047430
H           6.95869716707777    7.15604906840804    4.99108830759003
H           2.14486044433871    2.92025427840522   -0.52180333804605
H          -0.01446689165027    3.30569780443355   -1.48949525518765
H          -1.75005122195277    7.45368323186250    1.58431300545341
H          -3.53477147002647    6.64791802201198   -0.77765413153594
H          -3.31328914484833    8.89874974626932    2.42456132213579
H          -3.90990047238426   11.04865149356232    3.79672555775222
H          -5.41373444519517   10.66274131580765    4.65875605351284
H          -5.14724213752125   12.29849435689837    4.01991751485664
H          -7.57872015297672   13.00807697316384    3.25024779654148
H         -10.28385330623621   13.41640759055866    0.43894937166510
H          -9.44870466399271   14.36628096261071    3.23350048611250
H         -11.86868607627922   15.07354213322235    0.17066702829893
H         -11.00277662343882   16.18172539618028    4.26559560715841
H         -14.49779388067846   18.85194679810431    1.92322397712376
H         -15.47381245652104   17.70775600414527   -2.13218687893679
H         -16.94871548346456   19.53697812953009   -1.08096803736668
H         -14.24760076772391   23.61686855803708    2.83162632214506
H         -18.72451080885998   24.40809817510143    0.78460283404277
H         -18.79937807793333   26.60400095930860    1.79284498324975
H         -17.77616066364526   28.35465404824163    3.19002373158738
H         -15.56853930939723   27.99067607445150    4.21987232972396
H         -14.36516408918926   25.87083734237359    3.85902725803342
