112
 SCF done       -204.439020666531          0.000961038538
C           1.46995094556850    2.22491305885714    1.84227297224364
C           0.24504134720296    2.62665226779706    2.30274963314864
C          -0.03758824505540    2.87972199921779    3.66147064051848
N          -0.31067731607252    3.12867931978254    4.74807792778360
C          -0.90266441408395    2.76025958676116    1.49420849385316
N          -1.88147896968805    2.83061171534370    0.89896322695215
C           2.59402254898516    1.81812124016870    2.67654967124676
C           3.48694363424871    1.03255823613318    1.88885470524039
C           4.60962905158633    0.46892819422248    2.42420331024682
C           4.89956250451092    0.67417763204487    3.79154068118942
C           4.02060709932905    1.47262321750195    4.58014355527005
C           2.86403507135429    2.04169682087339    4.00071169346312
C           4.32273185159374    1.67211828554727    5.94274389819840
C           5.43613133547665    1.10725674605661    6.50247132254360
C           6.30006064207971    0.32040384297541    5.72582357910815
C           6.03782561973180    0.10869949671468    4.39943605222122
C           2.99076837062840    0.96834076892516    0.50469319462442
O           3.44894431347947    0.35632943063846   -0.43049290440764
C           1.80669803505535    1.88402937967404    0.46961080612624
C           1.32443907399032    2.30038993287637   -0.72107627883029
C           0.42444880307906    3.39548113969875   -0.99348451677688
C          -0.48266109770420    3.29997419574811   -2.04448553724378
C          -1.39091594360899    4.31507012285577   -2.29150366887712
N          -2.36762167813838    4.06207043707549   -3.31440517158068
O          -2.05669564617803    3.27745252066689   -4.19019943363688
O          -3.44506930354706    4.61058608486284   -3.24541641457913
C          -1.39162299151212    5.50992863609776   -1.54512054116070
C          -0.42043912302653    5.61189255315311   -0.53495980675546
C           0.44675688489127    4.58648361779966   -0.25181125630406
C          -2.27176925169518    6.60940685626384   -1.83912051961056
C          -2.67295596763214    7.51359040111102   -0.91637177609980
C          -3.50845174926566    8.61585234431529   -1.24168439989033
N          -3.99455668135177    9.50620533729189   -0.30970605534109
C          -3.83484207619506    9.43205679003913    1.12147817406463
C          -4.73743912660927    8.36783006231413    1.74157219067047
C          -4.78167166058854   10.51425899018814   -0.90245921566855
O          -5.30135179774020   11.41694141510842   -0.27888285188837
C          -4.75377879280987   10.19294055265663   -2.30940577593666
C          -3.96414957968253    9.03113081441518   -2.48796354321869
C          -3.93726559581482    8.74447899148165   -3.90578615445164
O          -3.35358366108508    7.89716390883178   -4.54875776603773
N          -4.75401448442535    9.73896253690749   -4.48772622965761
C          -4.92497595002998    9.76190302940098   -5.91901685881294
C          -4.09603340545652   10.86229550530749   -6.57616608241887
C          -5.23532197798393   10.61312105786806   -3.54491717987039
C          -6.07502172747305   11.76040898324714   -3.67624470340380
C          -6.74612399243452   12.21892429566397   -4.74951139385787
C          -7.57778980859669   13.40236158365309   -4.70837938583503
C          -7.28695363585817   14.51925290144439   -3.97398379516579
S          -8.41709645024394   15.78901272308025   -4.20455404939625
C          -9.32119678550377   14.83707015127819   -5.29192572597674
C          -8.77970462074045   13.59315014477224   -5.47431830050118
C          -9.47211891368974   12.58363188632735   -6.28067287389582
O         -10.36146448311046   12.79248842816866   -7.06338815769718
O          -8.99553563406934   11.33919775977111   -6.00196651794591
C          -9.52665765130981   10.24681371058851   -6.60011433292335
C          -8.98832556655536    9.04570929529653   -6.33404907462581
C          -9.45577591299304    7.83630346756255   -6.91732583457764
C          -8.83891936242808    6.63619636356504   -6.75393797668911
C          -9.25578236327698    5.35739472521839   -7.30959485308869
C         -10.44067653714534    5.08824250536430   -7.94231480443554
C         -10.80133267045065    3.82071221389389   -8.44717037571272
N         -11.16150946460856    2.82159431726235   -8.88311076637390
C         -11.48112567668275    6.01446398245736   -8.16467534159309
N         -12.37595971714218    6.70220357986325   -8.37819574105713
C          -8.20125873181878    4.39286767641177   -7.03573073308065
C          -7.18116022762818    5.02687561338719   -6.26611817889077
C          -7.54602606892000    6.43001078456913   -6.03316875807583
O          -6.91339554805016    7.25693780866502   -5.40891422027883
C          -6.05654289532432    4.35922283579008   -5.86807004012079
C          -5.89703839718160    3.00471052344712   -6.23969701047266
C          -6.91560736956319    2.36214241601844   -7.00321268259349
C          -8.06958515955661    3.07666244605716   -7.39385399652778
C          -6.74680989832527    1.00987100731541   -7.36405349229771
C          -5.62264679965816    0.32267380986069   -6.99412370776361
C          -4.61669854536653    0.95842350272329   -6.25167262253616
C          -4.75022566169358    2.26984614562706   -5.88212200533858
H           5.26730363543421   -0.12996359843202    1.81197965962569
H           2.22078241282930    2.64864801213974    4.61861890815188
H           3.65262058193336    2.27538654393846    6.53739122383075
H           5.65696984623250    1.26273905399969    7.54773904766777
H           7.17413680112477   -0.11734656918951    6.18399273282044
H           6.69907882173292   -0.49648756893915    3.79686911634210
H           1.69927447504170    1.76267489352172   -1.58670572016715
H          -0.52901381197334    2.40385885357468   -2.64576180978879
H          -0.34554850156930    6.53343338223867    0.02068001119856
H           1.18307993824297    4.70920278698539    0.52943674657488
H          -2.64503947125558    6.70570990792672   -2.85039492987455
H          -2.39052066616110    7.39522243894892    0.12023709003992
H          -4.11378845927481   10.41810937977395    1.50429841413952
H          -2.78515755679981    9.24493835252679    1.36754871048839
H          -5.77841785773758    8.59652908057325    1.52752976047555
H          -4.59986943799165    8.34973502662835    2.81923321347959
H          -4.51258405049717    7.38120829868028    1.34239719396806
H          -5.98420695115804    9.85594843189429   -6.16467121079577
H          -4.58456452849656    8.78299863194121   -6.26879649568921
H          -4.36592591145024   11.84281867612374   -6.18945492183985
H          -4.25681906689429   10.85245001221883   -7.65082614713217
H          -3.03915377524347   10.69469230850209   -6.38302833476774
H          -6.19657951677268   12.27838243841885   -2.73248776246436
H          -6.71496633872791   11.70672340858342   -5.69656847643043
H          -6.44281386130476   14.67288990443698   -3.33175133155673
H         -10.22172636386813   15.21173210897756   -5.73686607208305
H         -10.35851379717940   10.41906539377866   -7.27398938803038
H          -8.15705153677772    8.98575943307659   -5.64696266409608
H         -10.34182907745760    7.90664674792975   -7.53421023483410
H          -5.30022404763372    4.85421430471825   -5.27637563234161
H          -8.81922468189838    2.56526866519367   -7.97661938125243
H          -7.52375954831432    0.52825435501122   -7.93991924683610
H          -5.50247600845794   -0.71310815158039   -7.27555976617934
H          -3.73104263316158    0.40727802049060   -5.97356282844205
H          -3.97107342517089    2.75868037660396   -5.32051381066914
