106
 SCF done       -214.559849722504          0.000396205656
C          -5.79608191913787    0.86149638011877   -0.25487661902153
C          -6.14595552771808    2.03085974590595   -0.87135224968041
C          -7.42434050959843    2.27932185232310   -1.41708254989878
N          -8.44523450693400    2.53349348245788   -1.87403761163089
C          -5.25449414284910    3.09893822524789   -1.09351692040588
N          -4.54988387056006    3.98190986384968   -1.29622776768534
C          -6.62506304186521   -0.33425566485717   -0.17852007905614
C          -5.79224923033784   -1.45553057389033    0.11091588644263
C          -6.29886805783191   -2.72068241323928    0.20747903549202
C          -7.68445050820309   -2.92354929895447    0.02400485206317
C          -8.52490870816356   -1.80450217818676   -0.24884982414354
C          -7.97335805768343   -0.50707883179622   -0.34665178286563
C          -9.90725102230233   -2.02008610632821   -0.42327434148348
C         -10.43558476607945   -3.27920056076914   -0.33566793262684
C          -9.60767004509947   -4.37997692456710   -0.06774599692236
C          -8.26166171946607   -4.20625312448974    0.10789600520957
C          -4.40580922441908   -1.00241809030326    0.28410961548580
O          -3.41341620647471   -1.66019278441061    0.47916457265529
C          -4.47400412520457    0.49938047053738    0.23142395527406
C          -3.41798377440493    1.20094735045006    0.69134402901099
C          -3.30808809496332    2.59643882796848    1.04565067603372
C          -4.34262389484064    3.33880069928598    1.62975978975677
F          -5.51690865547614    2.74341917238720    1.88762843838328
C          -4.17382629636067    4.66270935058875    1.98260373175375
F          -5.19843391037533    5.30998612142305    2.55414174820632
C          -2.97220110304365    5.35690737380714    1.75612228491559
C          -1.92382337132423    4.59800638036699    1.20944633446828
C          -2.08566832110773    3.26321764029001    0.88511657440926
F          -1.05022303404880    2.58749700691428    0.37799563987819
F          -0.71865880978543    5.14730543504677    1.03408855463891
C          -2.89629814909924    6.74831580104714    2.11024018465311
C          -1.94642375872012    7.63031103545162    1.71625895383514
C          -1.95403762713708    8.99865929048688    2.09954593796597
C          -1.48718397378147   10.07801311918399    1.37360077148255
N          -0.76763471934392   10.06469953860944    0.15824703410058
O          -0.41224638065026   11.14069694076825   -0.28451507440394
O          -0.52657605008164    8.99172612483270   -0.36380498291264
C          -1.87904591137332   11.30271812706958    2.02643627062218
C          -2.61684216144480   11.00074423375624    3.12226742236088
C          -2.65059311311148    9.56832940003082    3.27432110069200
C          -3.01431692088157    8.85770258647380    4.39720256182393
C          -2.29905074313673    7.71221947612500    4.89905593334541
C          -2.67345795422382    7.48983312404053    6.18356956521926
C          -3.73887972711825    8.39395651176360    6.51934463093103
N          -4.33552864829698    8.41435480334993    7.78396917402367
O          -5.24385764890148    9.20991384949271    7.99999884655367
O          -3.88732401873168    7.66080533037686    8.63174595403522
C          -3.99797222958433    9.22489600880152    5.43079440337397
C          -5.06859272110011   10.13638577948925    5.29826834955316
C          -5.40058124685888   10.76246124484386    4.13994009977244
C          -6.31402037322943   11.84896284657691    3.93278976141139
C          -6.63296983789379   12.15661173342912    2.59703804319928
C          -6.13127215878069   11.55666661129819    1.33556350874946
O          -5.33646321936574   10.66858856587216    1.17743953770785
O          -6.71865856346801   12.19845298497438    0.30710265095807
C          -7.60402783495964   13.21017798265528    0.75569454868847
C          -7.51972606838666   13.16346339817329    2.24640395807131
C          -8.15249198003743   13.91795478224297    3.21809088269411
C          -7.84150419921825   13.64945253509062    4.53926483252390
C          -6.91790830499075   12.66890148226529    4.91781846253494
C          -6.67868680580718   12.57522276495250    6.35644034016301
C          -5.49099857934310   12.61622036880976    6.98301233813040
C          -5.25321215193638   12.35090421493929    8.40210646854658
C          -6.10632587037397   12.62437526737092    9.42845009706637
C          -5.80059911014239   12.37714888331955   10.78489776994124
N          -5.58580062450792   12.20949479755316   11.89867508637647
C          -7.35920633510112   13.24911977257337    9.24416916051226
N          -8.37401076286043   13.77107726606319    9.12448594895042
C          -3.93115652371857   11.75411638777032    8.48770468574619
C          -3.27279387545035   11.90828713800285    7.23016623440378
C          -4.15964228109593   12.62104267772411    6.30139508159119
O          -3.89249807974124   13.09967321477816    5.22231511600576
C          -2.04793092477480   11.35068190909715    6.98913194482677
C          -1.43999636356635   10.56954043403824    7.99523822387178
C          -2.08802689841897   10.42224303705059    9.25825763356340
C          -3.33415389100611   11.04368966592275    9.49595705858242
C          -1.48236025982481    9.61476091377486   10.24225725623068
C          -0.30058441659002    8.97390088565379    9.98933736056716
C           0.33467716270759    9.11678299185915    8.74599920589467
C          -0.22040511028421    9.90000410686320    7.77133083186444
H          -5.64948047244889   -3.55641004417909    0.42145102226384
H          -8.63370525064694    0.32353602250079   -0.54002814187417
H         -10.53989048718604   -1.17016800804370   -0.63232960761514
H         -11.49510175080779   -3.43438717071649   -0.47285195072940
H         -10.04206352413545   -5.36605565982395   -0.00079217979503
H          -7.61961496373398   -5.04982827443899    0.31439748829436
H          -2.51600469043665    0.61598657314271    0.85268694471587
H          -3.73219024960955    7.10711213024905    2.69608698921426
H          -1.18790069395761    7.35032596730070    0.99767180196732
H          -1.61206258393169   12.27742519277074    1.66496484982958
H          -3.00726400564880   11.70605015717759    3.83044765467219
H          -1.49565719270213    7.22998013248679    4.37773527260046
H          -2.26943275976000    6.77088678829016    6.87054874917335
H          -5.65680530690917   10.28550238588188    6.19273420759173
H          -4.93931641470580   10.41415248781176    3.22445957897674
H          -8.60991784845029   12.99207687264067    0.37995906457967
H          -7.27872326326328   14.17146753054814    0.34330331630493
H          -8.85822383576682   14.69157168337890    2.96088941876277
H          -8.30619368397021   14.23616557417168    5.31836274583197
H          -7.57902004727347   12.50299399145641    6.95616419115173
H          -1.56374992367190   11.47019909820373    6.03081932333936
H          -3.81712038922106   10.89693215312836   10.44899051427668
H          -1.97938999595950    9.50139993518121   11.19349642423048
H           0.15005686261390    8.34912134191247   10.74521751922441
H           1.26538000970882    8.60100753437608    8.56340830300730
H           0.26159486242861   10.01281482807499    6.81105728401875
