115
 SCF done       -224.323169127995          0.000386905121
C          -3.01493215950847    5.92208397969647    1.22510855362534
C          -4.20811136846628    6.55427406415402    1.00901710728907
C          -5.33976236831973    6.39175279704970    1.83629340196018
N          -6.28644577383282    6.28849142122092    2.47565136131952
C          -4.45908973400892    7.36597173307101   -0.11541224464602
N          -4.71112807163111    7.99008025233170   -1.04596150586328
C          -2.74578305579796    4.89800562949734    2.22155960279109
C          -1.57601315761687    4.17600170436929    1.83546450860899
C          -1.10115674627113    3.13281026487035    2.57892260906672
C          -1.78083216988314    2.76368332687897    3.76081546307869
C          -2.93967759212956    3.49273004135736    4.15978450021139
C          -3.41132740314503    4.56616537123629    3.37088102590941
C          -3.60180286399973    3.11816318340828    5.34672226771166
C          -3.14615447640720    2.07247742073162    6.10257401444057
C          -2.00702602408353    1.35431037136180    5.70815866802954
C          -1.33904605281781    1.69245749386822    4.56267893403104
C          -1.02916058189137    4.75181649492937    0.59890799527040
O          -0.09928959410720    4.37382792407441   -0.07368261821608
C          -1.85039628572060    5.97900543635393    0.35683066353749
C          -1.39205145947037    6.95419437113871   -0.45655689644387
C          -1.84565101768551    8.30982083380266   -0.55312295289819
C          -2.01980424749596    9.23552626788954    0.45351037066547
N          -1.80207079879398    9.07106351061250    1.83745315357242
O          -1.60324955617422   10.07517726227642    2.49035814232403
O          -1.79748444937965    7.93869121242230    2.29991849080691
C          -2.31213822068396   10.52954033019249   -0.12457230940584
C          -2.27620737375625   10.41587497683252   -1.47418536347228
C          -1.99237645247451    9.04906195154202   -1.82333267155902
C          -1.99127128589049    8.44833464697448   -3.06399587419401
C          -2.23900305024842    7.06282120712492   -3.29974304651097
C          -2.37559200447793    6.86295069385589   -4.64096078620029
C          -2.16477987325416    8.09465432037340   -5.33136583221480
N          -2.23566152010960    8.11012870247833   -6.73729254786919
O          -2.21953005846028    7.02999639740938   -7.29937398821681
O          -2.32986346365105    9.17403514902788   -7.33356967583427
C          -1.87880469130911    9.10419661254549   -4.38999583195393
C          -1.36387906801242   10.39739676863379   -4.51152284872939
C          -1.20672759972931   11.15073195199654   -5.65625486388262
C          -0.70045939187031   12.44397970328000   -5.65352006470147
S          -0.22399349828127   13.29231717775407   -4.19413651019515
C           0.17486728661161   14.77021723916776   -5.05266220044223
C          -0.02659162909720   14.56021988999192   -6.42495696483691
C          -0.54084510616388   13.28831188972741   -6.76422160199101
C          -0.85031129725164   13.17007749116682   -8.13664915091048
C          -0.60425700356910   14.32549589886790   -8.81556193915319
C          -0.82769369499039   14.59595412938640  -10.25667045753427
S           0.05441972540394   15.58289456440353   -7.79383806315271
C           0.46668140157199   15.95446439431666   -4.36411806838679
C           0.91587848327226   17.18827161508782   -4.88617788270561
N           1.62784207174415   17.41521694953935   -6.05465435670767
O           2.04435375263771   16.43682735583506   -6.68061409603304
O           1.81737370428306   18.56817018272736   -6.40847643167094
C           0.61131793069474   18.22387425640121   -3.96380782223493
C          -0.05391404973189   17.68088337934879   -2.89772774989819
C          -0.09916858346081   16.26970065559272   -3.04838024905291
C          -0.62262289520367   15.41011150880951   -2.06943880699906
C          -0.04388278965424   14.27671980763635   -1.46861614491971
C          -0.84632135457230   13.87065339231369   -0.42166684444231
C          -1.98688976176562   14.70939101524828   -0.36832784776257
N          -3.08663888230103   14.48900444024017    0.47729708164479
O          -3.09425064713622   13.45495771728699    1.12320239813715
O          -3.97093215934829   15.32679148667326    0.50889263092961
C          -1.88785921538058   15.67695614514071   -1.37910184181494
C          -2.85589956768045   16.57256641670039   -1.86447373080121
C          -2.87682893142046   16.96989705852381   -3.17773486336937
C          -3.69311525041072   17.98374602155207   -3.70404974700625
C          -3.62834370251783   18.37898386612198   -5.01803783404231
C          -4.38336530656910   19.44558743142928   -5.64841743667708
C          -5.30003732042111   20.27139560899458   -5.04937077233450
C          -6.00248276657953   21.29227500389350   -5.72519535761088
N          -6.60830878153564   22.13565993881145   -6.21404673727116
C          -5.67452277175386   20.24199532500933   -3.68923134777484
N          -6.02859797743413   20.29220044473609   -2.59827304025236
C          -3.98243191502798   19.50971769515433   -7.05050344093819
C          -2.99219401836657   18.51281832310832   -7.28424095155463
C          -2.74664273468672   17.76765917830951   -6.04589358934365
O          -1.98316784846364   16.82423150593083   -5.91763463719395
C          -2.40792728098941   18.34481486025402   -8.50752249007572
C          -2.79890002968364   19.17822920294053   -9.57749283979052
C          -3.79826080129864   20.17008530021677   -9.35668986133584
C          -4.38119354505644   20.32383394937182   -8.07701591186894
C          -4.18700631620243   20.99199801721632  -10.43335067885653
C          -3.61553957676365   20.84428994220992  -11.66848078803586
C          -2.62894643414669   19.87038239682380  -11.88331107594315
C          -2.22900711463773   19.05451877879467  -10.85977656649425
H          -0.21587468359825    2.59651242500901    2.27065886923109
H          -4.28032306690605    5.11342523836438    3.70099811079561
H          -4.47887434633203    3.67294428377309    5.64538059482602
H          -3.66099261558461    1.79250862790556    7.00928083135163
H          -1.66116295142626    0.53254389236681    6.31708325539944
H          -0.46097474816712    1.14377671693357    4.25492706904250
H          -0.54051129221625    6.68962107205266   -1.07879920348488
H          -2.54820048706014   11.39542928912183    0.46854806860668
H          -2.54492068905888   11.18524103354058   -2.17082062877580
H          -2.40743509254089    6.33002631436719   -2.53618328750342
H          -2.61560181840494    5.94263131318708   -5.13991300062592
H          -1.03314336183375   10.85459207460839   -3.58716900521773
H          -1.51611068022426   10.75351782531615   -6.61262286126648
H          -1.24958428074895   12.27847602981934   -8.58511309504945
H          -1.69478340467555   15.24481268554005  -10.38950912777430
H          -1.00785638741414   13.66799193344291  -10.79340973711538
H           0.03569190601871   15.09830795302153  -10.68954398585936
H           0.88837620215752   19.25070913811689   -4.10918937187790
H          -0.39450302543162   18.20118183899840   -2.02329810483054
H           0.92386387092229   13.87942714073177   -1.70890700689888
H          -0.65348495586697   13.06507509509891    0.26114951933989
H          -3.62884692010731   16.90149333799860   -1.18005223241468
H          -2.23349587148970   16.46234370659381   -3.88158113834326
H          -4.36683859639724   18.49091335136661   -3.02643495252546
H          -1.64947457382078   17.58977889475825   -8.65370032214166
H          -5.13042626107289   21.08771797473207   -7.94467956241621
H          -4.94464747110577   21.74262352207377  -10.26342361017076
H          -3.91964828364425   21.47953850763232  -12.48653734582833
H          -2.18681254764940   19.77071465428918  -12.86311460673689
H          -1.46599430618658   18.30625950372236  -11.01739642011144
