99
 SCF done       -179.494345185694          0.000654584983
C           1.88615458127040    1.84549604469716   -0.91480126496230
C           1.83177544891431    3.17129258231155   -1.24006077733141
C           2.13254780122558    3.67554748948024   -2.52252863522393
N           2.36012197780630    4.13130091918105   -3.55098066281157
C           1.58006249777506    4.19847602122190   -0.30540654400113
N           1.46371835727907    5.07133768211850    0.43047015887830
C           2.42148127424976    0.78299649486458   -1.75711637681300
C           2.77222898235197   -0.32450704325681   -0.92856384649068
C           3.34696547551723   -1.45156928552437   -1.44370588810701
C           3.59378277250724   -1.52648958141095   -2.83255559316978
C           3.22845742825444   -0.43067136140410   -3.66797121106009
C           2.63805664199143    0.72498853444551   -3.10787868139204
C           3.47539350929173   -0.52123943569499   -5.05309910372123
C           4.05888022258447   -1.63683933460874   -5.58872992159830
C           4.41979524664481   -2.71429463188776   -4.76549382275824
C           4.19203852630854   -2.66047998910607   -3.41729002780039
C           2.40683959287783   -0.02944176402692    0.46648988164258
O           2.59597441435273   -0.70041302352046    1.45304023112906
C           1.67544826608140    1.27480198287431    0.40478142292707
C           0.87317097809376    1.64423603240119    1.42886930973932
C          -0.15153353054513    2.63111377433179    1.39340148554729
S          -0.80370544884317    3.36445638557546    2.84786687161804
C          -1.86996923294212    4.24585774643132    1.76903085331781
N          -1.68689067762323    3.92404207873976    0.51375896318039
N          -0.74883220488636    3.05287421066926    0.31064581516341
C          -2.80937065942891    5.20074827385084    2.23800623334754
C          -3.59263426246482    5.90227491850292    1.38140894516879
C          -4.53182002180904    6.87132868377295    1.81503884336524
N          -5.34464952811667    7.58056849573892    0.96082548912591
C          -5.42610834345434    7.43165978327697   -0.47226214174638
C          -6.23310723430945    6.19826251438174   -0.86962129975055
C          -6.17514331038708    8.47967220980330    1.64789003374543
O          -6.97998788231201    9.20580763875383    1.09708610859287
C          -5.82018207957578    8.30437690619503    3.03918330289654
C          -4.81307362311297    7.30750840519080    3.10746994030034
C          -4.46310831462976    7.12424316967214    4.49820990082161
O          -3.67483940331783    6.38317321495360    5.05109584918388
N          -5.28834116538877    8.03108700295581    5.18636392984174
C          -5.19545431228024    8.18174314166363    6.61837462789281
C          -4.37481197450840    9.40852465557099    7.00907327656323
C          -6.09819174161591    8.74265218231287    4.33174561847822
C          -7.03867325965167    9.71597415975014    4.76610052454915
C          -7.82753853851881   10.39429457129150    3.90100274582702
C          -8.81852048231516   11.36609758205118    4.26801464388123
C          -8.95685689011735   11.95059552793979    5.53703755439006
N          -9.89958766423338   12.82026641454750    5.82015881489344
C         -10.72580962695995   13.17875023006381    4.83662447379210
N         -10.70107058903484   12.67746085843275    3.60177059921112
C          -9.77236623126151   11.79600562324249    3.32564102550234
C         -11.77003206244663   14.13138503250168    5.17534696751955
C         -12.21649259101456   15.09988357410075    4.35176566516311
C         -13.37514059023412   15.96688774480804    4.55223233316196
C         -14.17079565496400   16.02363105718500    5.66286114446679
C         -15.28586129727847   16.88053952891365    5.79515983303885
N         -16.20005232770398   17.55216341920666    5.96923913105686
C         -14.00087039257924   15.25967881751328    6.83833816365945
N         -13.94352503826843   14.68019425629110    7.82744578302522
C         -13.55013023237097   16.75375620005118    3.33905072849423
C         -12.47871553517701   16.47006027953642    2.44387282556921
C         -11.56095681020354   15.49784142379987    3.06156579052976
O         -10.46743111910384   15.17667599787017    2.66482754723652
C         -12.38403275891401   17.06746792486658    1.21961716555715
C         -13.38191896305074   17.98335828621337    0.81957779264919
C         -14.45848339811135   18.27201591503672    1.70816047410376
C         -14.52557151656803   17.64601512322657    2.97260199146381
C         -15.44885386779833   19.18954535867443    1.29980019191473
C         -15.38178688245542   19.79150201896140    0.07323311672870
C         -14.32225962235078   19.50522480424407   -0.80138546911232
C         -13.34381829585467   18.62097089134238   -0.43624731920511
H           3.61220959441345   -2.27592148586695   -0.79850442329146
H           2.36161008144729    1.53668520031418   -3.76251393383518
H           3.19871114280904    0.31202672619694   -5.68205483303186
H           4.24660517488663   -1.69531743254785   -6.65034793914041
H           4.87920901648778   -3.58681995146656   -5.20523416667878
H           4.46783870615592   -3.48682910246662   -2.77868983950874
H           0.97207091171817    1.08324071811710    2.35116577821914
H          -2.87173902811902    5.35623601074004    3.30592284594030
H          -3.48877180919977    5.71543014610777    0.32270081519410
H          -4.41818115439130    7.38916195228015   -0.89326266396640
H          -5.92603234336946    8.33192475185541   -0.84069165623005
H          -5.77302100693972    5.29066788856105   -0.48550757903783
H          -6.28931144108401    6.13024999898832   -1.95235432412059
H          -7.24289777707764    6.27115646660215   -0.47287039320689
H          -4.69936865766582    7.27839193957751    6.98445108480455
H          -6.19979356144843    8.22911464083874    7.04879005033132
H          -3.36525228481660    9.31922257809527    6.61572425432539
H          -4.32019517479643    9.48505532808761    8.09147761529371
H          -4.81920889156727   10.31969978608507    6.61438037686662
H          -7.11978460728569    9.88621829050222    5.82983184145930
H          -7.74372006433736   10.18979588068669    2.84115397397025
H          -8.28031303958865   11.72156873515498    6.35065576835205
H          -9.77824642553702   11.39022667368300    2.32178909952086
H         -12.18653048654294   14.00196076740048    6.16506676063148
H         -11.55953541355281   16.83659784592074    0.56163705585528
H         -15.35245086086576   17.88721541753211    3.62140112207347
H         -16.26226939194004   19.40641955771439    1.97652832353499
H         -16.14523577919526   20.49170778219138   -0.23095888197229
H         -14.28575003499268   19.98939083385604   -1.76577918695139
H         -12.52567219883940   18.39722570803227   -1.10500247809753
