92
 SCF done       -171.080703144211          0.000569898947
C          -3.98941939630429    1.06799333057727   -0.49861120338858
C          -4.88320497135911    2.01044908656685   -0.06872522936608
C          -5.45826433482954    2.01438603542574    1.22041937790044
N          -5.94448733989284    2.07019320139070    2.25822242082810
C          -5.41133911670693    3.04017035976428   -0.87462826136215
N          -5.91836603686000    3.86753348966255   -1.48780972689669
C          -3.62099040436951   -0.14100303235077    0.22834773914122
C          -3.05559061764079   -1.07506354394300   -0.68998282580660
C          -2.65985345901775   -2.32101527575900   -0.29461177800305
C          -2.80729555226788   -2.69376403555791    1.05985026959975
C          -3.35477226477277   -1.75876156015917    1.98632505272412
C          -3.75771678010017   -0.47662130943673    1.54943551719955
C          -3.49286536060484   -2.14152827899552    3.33624147139976
C          -3.11339854331826   -3.38861398105053    3.75198694753004
C          -2.57578390705300   -4.30870606893664    2.83915401893568
C          -2.42566354997104   -3.96884941699923    1.52203517728802
C          -2.98509609549584   -0.46529579783313   -2.02653837132498
O          -2.61391815074674   -0.96141480918307   -3.06370041584637
C          -3.42025923497971    0.95390340830177   -1.83232913910541
C          -3.14655976740801    1.86664456353835   -2.78871523569659
C          -3.20162359039668    3.29937451849028   -2.67990489312133
C          -2.77532344881637    3.99975295271870   -1.54059936087793
N          -2.87907379440307    5.30053791882348   -1.43500785775935
C          -3.39164880377054    5.96781919771470   -2.47075457424714
N          -3.72400630006722    5.41675376455057   -3.64028541065694
C          -3.63334499500015    4.11403179723911   -3.73926228069304
C          -3.58099302811317    7.38165807631577   -2.31421730483478
S          -3.08434541838927    8.17395462181690   -0.86291781741728
C          -3.66659009660537    9.70505796062016   -1.44251356430788
C          -4.22262776722791    9.56734640449080   -2.72221118225523
C          -4.16567799189373    8.25072574027364   -3.20501721727462
C          -4.77645207215964   10.60581661629622   -3.49016093513465
N          -5.23488663449828   11.41971550286508   -4.15680318408817
C          -3.52108864956281   10.85007324681336   -0.62099102361825
C          -4.01216465436474   12.08856357129408   -0.89232856102344
C          -3.82865971127119   13.21846171420722   -0.05497976355761
C          -3.07770127968781   13.34791853031651    1.09325630657899
C          -3.17566865329407   14.68515634633434    1.57157139563031
C          -4.07879993077621   15.39096893396039    0.63473256598274
C          -4.45048952521806   14.51191763520376   -0.32734066564848
C          -4.50291396451087   16.72249743307521    0.71720304461122
N          -4.88273174369404   17.80539336452216    0.76422456947456
C          -2.53921646431986   15.23299355230023    2.66006042087981
C          -2.60464923583351   16.58486765578079    3.11670425707827
C          -1.82173385529117   16.72557100095327    4.24337111994150
C          -1.19188096379604   15.43842199660043    4.51019601365987
C          -1.61671662639198   14.54506343334464    3.57830320344802
C          -1.21089934686009   13.20762564386705    3.50685209643568
N          -0.86198165684901   12.11387832354790    3.46063959786597
C          -1.64730383465000   17.96003049540794    4.92408909099114
C          -1.22693039222612   18.18898052890606    6.20005669603425
C          -0.94903534234021   19.49910342481814    6.76935568061543
C          -0.80088083821866   20.67225008309448    6.07680438141996
C          -0.51545358112207   21.91462968736218    6.68257799849378
N          -0.29120290049648   22.95426360120749    7.11437218057866
C          -0.86750454621881   20.81146514548609    4.67369252747957
N          -0.87512932103087   21.00595943404863    3.54207391690445
C          -0.76013330964092   19.33433728963174    8.20459448937001
C          -0.85740072158265   17.94910443314734    8.51881209514128
C          -1.14867537059108   17.18201460053637    7.29705253392363
O          -1.35224319562202   15.98984454646699    7.22715347097892
C          -0.70393805173656   17.48421276710681    9.79352896227228
C          -0.43936447429646   18.40236890007893   10.83368736798863
C          -0.35017603282597   19.79193062195573   10.52985072614826
C          -0.51587780979797   20.24321149778403    9.20066407305859
C          -0.09151529312096   20.70047134294780   11.57644580995795
C           0.07440877105340   20.25931820308902   12.86101390138073
C          -0.01158161538284   18.89088037940193   13.15860405411583
C          -0.26307772768440   17.98211934834089   12.16671227752776
H          -2.24138821247634   -3.01503248798373   -1.00826236246362
H          -4.15888497145025    0.21452065442274    2.27408907862092
H          -3.91038534302280   -1.43103756338434    4.03433563876948
H          -3.22617659180897   -3.67364082102503    4.78713060341315
H          -2.28123549183145   -5.28809760773545    3.18496202482332
H          -2.01256596531628   -4.67303117276569    0.81486859149189
H          -2.79993420928887    1.46563571045123   -3.73647128961121
H          -2.31180240364369    3.48612637885686   -0.70662414249541
H          -3.93907314209743    3.68368362553017   -4.68387787284788
H          -4.53860379733986    7.93741991163873   -4.16318730244228
H          -2.97812482729388   10.68864659581715    0.30048163972314
H          -4.58708395451757   12.25031521798225   -1.79322938842106
H          -2.48780835297578   12.58522866543417    1.56030512374218
H          -5.10022327659881   14.70798984139881   -1.16043889971605
H          -3.19263948008631   17.35834403858126    2.66167738421583
H          -0.49504348244599   15.24051368789386    5.30015273266785
H          -1.91395164893813   18.82342247334058    4.32481552415415
H          -0.78097574595741   16.42777750300155   10.00417334826109
H          -0.44854391410044   21.30153236688896    9.00536434514683
H          -0.02484275536910   21.75274540206964   11.34214036909640
H           0.27330995952660   20.96280547071375   13.65548975669928
H           0.12216929904685   18.56056970728018   14.17779840529736
H          -0.33085101704170   16.92741225079450   12.38980965650993
