92
 SCF done       -188.206472316513          0.000907976591
C          -0.43840086590075    2.12567918617358    2.96752904633274
C          -0.28402558786098    3.31058642777209    3.63066764835359
C          -0.48862765830560    3.46444175236280    5.02005685777313
N          -0.64358839943029    3.64562113179508    6.14197615598100
C           0.17361973320984    4.49900294271480    3.03183791526287
N           0.58725209754789    5.48565984697241    2.61306801051368
C          -0.70080688792584    0.82904790573188    3.56842048058305
C          -0.38158902441941   -0.19421432502647    2.62432372008657
C          -0.50540041951034   -1.51907929884466    2.93427142288787
C          -0.96575145804164   -1.88646555860150    4.21799753808716
C          -1.30550322300057   -0.86880907434231    5.15803890896724
C          -1.16671182651292    0.49373859799029    4.81256655865690
C          -1.77386698489718   -1.25018692835484    6.43221537273418
C          -1.89677380269953   -2.57150209864031    6.76584942785339
C          -1.55900832262548   -3.57194050674339    5.84154826911541
C          -1.10382822671618   -3.23702027551809    4.59497188057239
C           0.04052637412307    0.41994062156699    1.35992621789999
O           0.45123965228769   -0.10291737253001    0.35226328609278
C          -0.19773206093778    1.88788936051637    1.55121609124817
C          -0.32601687759617    2.68683853492972    0.47707259369152
C          -0.84631565277781    4.02921331308232    0.42051438595895
C          -2.07921690959078    4.46972482410416    0.83374436978122
N          -3.11915754505482    3.72103782127848    1.43121357331508
O          -4.22760137223729    4.21594982786466    1.43076301611396
O          -2.84990386259173    2.63286976627220    1.91585084702998
C          -2.25527652087106    5.86315945626577    0.46126837706357
C          -1.11493000333366    6.29885846893454   -0.10411839427802
C          -0.15637302388579    5.20917140094002   -0.14015109986154
C           1.15867699494898    5.26551876911399   -0.51105717758495
C           2.03282672539702    4.16213398385236   -0.83338740921813
C           3.14877677673350    4.64352633890076   -1.42365973883969
C           3.09234781004907    6.09156117605522   -1.41167322516980
N           4.16380432520366    6.89935091120733   -1.83891923744146
O           4.12018408518417    8.09663471316538   -1.59636154675016
O           5.08095238518675    6.35314841780981   -2.42051211638662
C           1.91789726264515    6.50223427457210   -0.82399417154996
C           1.59598245373714    7.84510414820829   -0.45486786826927
C           1.03177837573288    8.18715413248784    0.71306489484183
C           0.90831190936021    9.59834279909623    1.14157055144450
O          -0.19910465432100    9.86685313408260    2.00183704885661
C           0.62607289453453   10.47472695436081    2.99740069216670
C           1.89810486565913   10.03081830730440    2.26259257442703
C           2.95600396427295   11.02098105297799    1.89846582146477
C           3.16198903163178   12.16731130175262    2.64658652980727
C           4.15382422719645   13.07341347021459    2.28983850444823
N           4.27069151743490   14.27073268400505    3.07949126409837
O           3.75129625833116   14.27176721826917    4.17467155785640
O           4.87383619364567   15.21285326651159    2.60544530963166
C           4.98008294674083   12.85593294201946    1.17939584303129
C           4.76112439212995   11.69152200970629    0.44103648289608
C           3.77477833127153   10.79247381558747    0.79022825527627
C           6.05835814060609   13.76215969519951    0.81526829232057
C           6.28990291074923   14.13783267493173   -0.44625472185001
C           7.32156024137117   15.08825955488517   -0.81625855878113
C           8.65104117633986   15.01678253549490   -0.35970917650594
C           9.22629574375850   13.88582664517994    0.40400065819520
O           8.71018303536120   12.86216239364665    0.73334775327360
S          10.95884964882659   14.23545525035368    0.75741882506968
C          10.94233767266041   15.78873876666057   -0.13283932380498
O          11.88834478039805   16.50487063538411   -0.24517476573973
C           9.58522714749736   15.99890135391029   -0.68595700961615
C           9.26912810017169   17.08671917296558   -1.48606887906718
C           7.97492676303014   17.14146512763070   -1.97955799549949
C           7.02600325306049   16.17237958769356   -1.66327410686589
C           5.70030090241078   16.41318559370746   -2.27052980878542
O           4.70787373540932   15.75718611304229   -2.17379334819107
S           5.77129477217799   17.91758728359148   -3.25648635340493
C           7.49402182416807   18.22491896840546   -2.86623760257561
O           8.11408998109893   19.15680233103745   -3.27502158211154
H          -0.25654274090612   -2.27835214932934    2.20780183384294
H          -1.44602660866949    1.24384542120682    5.53564477477581
H          -2.03046897328702   -0.47667897255775    7.14076068819207
H          -2.25499114904741   -2.85365846568391    7.74434433406521
H          -1.66255620343725   -4.60930962130470    6.12195253770358
H          -0.84378795472445   -4.00320457571005    3.87954556883963
H          -0.08017797526510    2.23284315964010   -0.47965524622123
H          -3.16589466272433    6.40431019061949    0.63050213721298
H          -0.93530544747098    7.27756308485159   -0.49872507587726
H           1.80090346543677    3.12740081861258   -0.68762111147492
H           3.97565856515482    4.08951621143516   -1.82629858882443
H           1.97357117653266    8.61907882569617   -1.11289257302718
H           0.73245044375676    7.44324321034216    1.43848795765208
H           0.91955551302760   10.28468778246361    0.28422418580014
H           0.45804069157680   10.04606506834688    3.98673596173354
H           0.46647032728880   11.55646298712769    3.02647123049587
H           2.35597384288268    9.15668918413721    2.73195789473542
H           2.56189335695340   12.38465895709499    3.51730443763027
H           5.39962781110153   11.48140377526233   -0.40202422644243
H           3.64851300046288    9.89791514174206    0.19944239118021
H           6.65935420551516   14.15957175940569    1.62093559746445
H           5.61387254379881   13.83746177387822   -1.23438740530554
H           9.99930653289485   17.84425117883546   -1.72349491696987
