100
 SCF done       -184.680471907516          0.002090592605
C           4.62763994818152    5.24649483780799   -2.31608535391186
C           4.95763251861394    4.37449012737292   -1.31192468593543
C           6.17571807796630    3.66303689171422   -1.25930301776578
N           7.14695498840985    3.05946927043768   -1.15986923449369
C           4.13380989131319    4.02097733263017   -0.22161426146099
N           3.51890609747182    3.67275883681095    0.68386233154300
C           5.44238556210991    5.52528013920971   -3.49116730880411
C           4.67291970045253    6.31021316396154   -4.39525947049586
C           5.16991643815073    6.72576241317048   -5.59746974562771
C           6.49133493451013    6.37586407941628   -5.95289234863472
C           7.27275708529164    5.59874454052048   -5.04903031129015
C           6.72758644459745    5.17737918429595   -3.81439079624983
C           8.59325562718031    5.26201121317917   -5.41018979524997
C           9.11789451894998    5.67168542065002   -6.60614144177888
C           8.34739627710759    6.43636806690541   -7.49525458454995
C           7.06178932542721    6.78041759043774   -7.17605579839494
C           3.34621954189813    6.57536067178399   -3.81686770070206
O           2.43819115534624    7.16634025511482   -4.36292948222744
C           3.38082207012258    5.98940601225046   -2.45121403105064
C           2.51572373919413    6.19686831622469   -1.41626152956274
C           1.27982617649853    6.88087173253987   -1.35952601201799
S           0.58696224806813    7.12449717338547    0.23405648674551
C          -0.78913807282947    7.94630363922080   -0.41210519351667
C          -0.70714689235494    8.00033592037396   -1.81370344454204
C           0.44835865969814    7.40299753764380   -2.33111622719343
C          -1.67270048148669    8.58712168170117   -2.64680244175675
N          -2.46174572596185    9.06117302167925   -3.33416582494209
C          -1.77021823928650    8.45838469373596    0.47022376959245
C          -2.87747853551721    9.14856354830837    0.09481668403743
C          -3.82021924999141    9.69184205004913    0.99827214734543
S          -3.63156744914821    9.55424847567397    2.72525050580272
C          -4.95818257697416   10.41183262690723    0.67328186173134
O          -5.36868932000004   10.68877458413550   -0.59247410535358
C          -5.68731160200912   10.87405656522053    1.80456052148188
N          -6.83039734774718   11.59244764906909    1.75877853840896
N          -7.67444044886867   11.65507128165077    0.64438868685564
C          -5.05868443892110   10.51412580060798    3.01612858049074
C          -5.41368976235481   10.85642244582711    4.33073956610875
C          -6.28453674436997   11.84143306320748    4.78190760100496
C          -6.30180532079962   11.84186551905257    6.19030674369997
C          -5.38861043157938   10.76568299468708    6.61705486037068
C          -4.86065604112532   10.19649528169786    5.50333216626875
C          -5.11213797401998   10.37362268559276    7.93097917700040
N          -4.86198902130469   10.03075179574515    8.99823869231491
C          -7.00525117483200   12.70590817446168    7.01457335983834
C          -6.92558507507951   12.81996130452743    8.42251971292813
C          -7.73822347132352   13.86192315642613    8.84281363637334
C          -8.38369065315932   14.41599547579872    7.66907862579242
C          -7.95703765945422   13.73559119075833    6.56870671205317
C          -8.38064236915884   13.95197661947467    5.25678118010969
N          -8.73576050433368   14.11678803653792    4.17426399459965
C          -7.91332949630845   14.38959884703609   10.14486356078819
C          -7.38213496499012   13.84656838095921   11.27628274473652
C          -7.49575769517735   14.38418973327813   12.57865316705466
C          -7.61335053335879   15.69965072200627   12.94391294370188
C          -7.78498256004011   16.16336791047448   14.30717828444815
C          -8.30392721617435   15.43372336271911   15.34621710665325
C          -8.47718985801826   15.93685247581839   16.65147629578876
N          -8.63389937327502   16.28817188331032   17.73347656534159
C          -8.77894658682931   14.11009320797471   15.23600287988971
N          -9.20976471361526   13.04583177299528   15.21073718930766
C          -7.40583692945673   17.56930750772144   14.35783356076639
C          -7.10035062807578   17.99647706151121   13.03506512517376
C          -7.28008014793906   16.87417072961832   12.09496346274081
O          -7.13219760352874   16.92235930176481   10.89199113459611
C          -6.71059969772662   19.27550299041108   12.76172968823152
C          -6.60673709625288   20.20447458100297   13.82142972813398
C          -6.90565756068229   19.78332886416654   15.14919866372001
C          -7.30642708817540   18.45067545454233   15.40106033002693
C          -6.79480085406067   20.71810739400593   16.19847632092706
C          -6.40999052808714   22.00756990439697   15.95021543359826
C          -6.11669605541132   22.42124525670397   14.64233263587924
C          -6.21321596870212   21.53888711774615   13.60071611571708
H           4.56283060531909    7.31783338428435   -6.26625612362202
H           7.34699770559962    4.59622710398549   -3.15012539143784
H           9.18153330111682    4.67160846553219   -4.72303719827713
H          10.13027517473469    5.40881814139041   -6.87360018717013
H           8.77782785166186    6.75216760452349   -8.43395995063311
H           6.46400919673369    7.36939537783263   -7.85633590368188
H           2.82375501255150    5.80908156304381   -0.45185695922642
H           0.67341025940442    7.36059434473662   -3.38174856466206
H          -1.59574452511090    8.28774224348976    1.52491198908828
H          -3.05502262773698    9.31739941881758   -0.95829271117196
H          -4.76783693991139   10.30534975969734   -1.24382394801248
H          -7.34219292526631   11.68493607566405    2.62914880292801
H          -7.15320277255012   11.43990001318606   -0.20094632983343
H          -8.07580945878342   12.58789291895452    0.58641600301230
H          -6.78134650356736   12.58443458319006    4.19372982364896
H          -4.16655800246971    9.37743001096048    5.46581493596578
H          -6.30343722564435   12.20694267779215    9.04383436238875
H          -9.08181882964579   15.23250067842545    7.68481574817608
H          -8.53122733160289   15.27164905614628   10.21941309140803
H          -6.88191924275137   12.88954360099625   11.20620592807336
H          -7.40745438022419   13.65990580929641   13.38142363103430
H          -6.48526419200167   19.57556118966758   11.74899583150919
H          -7.51758076429505   18.15852451553367   16.41762141556747
H          -7.02294834213594   20.39501716827375   17.20360241328464
H          -6.32952402830694   22.71640304608573   16.76075998113437
H          -5.81367936826094   23.44227368383277   14.46431620279836
H          -5.98819292839469   21.85139900801704   12.59137817181320
