116
 SCF done       -206.802961377165          0.000811978108
C           2.36350579489916    1.61011656113831    0.94037463340045
C           2.67818055215211    0.60987894759017    0.05780624838364
C           3.59346092262626   -0.42819656623597    0.33565097217650
N           4.32439121397647   -1.29887673157697    0.49439690142315
C           2.16110454490574    0.46287176422011   -1.24644514465856
N           1.79131180197369    0.27329070495274   -2.31732560009494
C           2.92642785508128    1.75928374243834    2.27853567060617
C           2.39464464579848    2.94289407219818    2.86649601327505
C           2.74050238466858    3.34753798994796    4.12381360473570
C           3.65110340435773    2.56773716072312    4.87050101656153
C           4.18545376026705    1.37956448860072    4.29323866584073
C           3.81020981934823    0.98876720603919    2.98683497210005
C           5.09003081018294    0.60619044459326    5.04844422530911
C           5.45079031372013    0.98680551220426    6.31267979240702
C           4.92466376853125    2.15717077762335    6.87938267297344
C           4.04381660113172    2.93124592890678    6.17346477799334
C           1.46889449816868    3.57697039749456    1.92108517083582
O           0.84974627460825    4.61244364885581    2.09732298965226
C           1.43947065027969    2.71308533239493    0.72859476824378
C           0.65047287166809    2.89867748517568   -0.37352115088304
C          -0.28875584790127    3.90926820998554   -0.65837011227450
S          -0.69663969900350    5.27884713295033    0.33764235137666
C          -1.87558105520268    5.82836282801953   -0.81359489938073
C          -1.93335796088838    4.97239924074140   -1.92644379166656
C          -1.04164595270234    3.90890168068449   -1.83100785174059
C          -2.79070889438920    5.16706790354134   -3.02644532693272
N          -3.47214007741493    5.30042489583900   -3.93801062808295
C          -2.66499582835861    6.97769731666925   -0.59818421620441
C          -2.50919502574679    7.76938853098109    0.50202070135301
C          -3.30857108327627    8.89555989541536    0.77846570843016
N          -3.12888182090849    9.70701954412574    1.87501091915578
C          -2.06491758517212    9.61871289800240    2.84617761546368
C          -0.74624028887132   10.15459483245239    2.29483524860646
C          -4.09238271216662   10.72513966526376    1.94098793045801
O          -4.12788135647792   11.55776476548561    2.82571358218371
C          -4.93279813591958   10.50027682138236    0.78267513599655
C          -4.42314192831277    9.38559261212959    0.08795646434718
C          -5.26879102980867    9.14822161205362   -1.06579254601918
O          -5.21828523669464    8.31805284171913   -1.94809891843564
N          -6.24851987334611   10.15092657192994   -0.98744381000722
C          -7.31815096501766   10.22561293626804   -1.95536486107621
C          -8.60202135271622    9.58450097434738   -1.43547187298338
C          -6.07735894313202   10.96014501619285    0.11089896222145
C          -6.93927886330821   12.01803277997720    0.45357499782650
C          -6.73961603314570   12.79854452121107    1.55914857993770
C          -7.60663417386371   13.82900048466138    1.97618338050827
C          -8.81695728471862   14.23605530564854    1.43811777060717
C          -9.35894628644271   15.27450915840140    2.23522285633211
C          -8.38080568476450   15.51874605271298    3.31487814744192
C          -7.34894875759161   14.65322300286561    3.15004576492774
C          -8.46267543605162   16.48222371101702    4.32726473728745
N          -8.48348132755203   17.26428314202681    5.16796453717218
C         -10.57508285855661   15.90935907657607    2.07152399668453
C         -11.16754926078936   16.88197278138654    2.91785258200997
C         -12.40824412958737   17.23138232824388    2.41211422478725
C         -12.61635659890102   16.47002041507947    1.18948528356700
C         -11.53655971424617   15.67299919547820    0.97724016855554
C         -11.38220094642668   14.79433299834047   -0.09930903703073
N         -11.28134809535316   14.07526423377704   -0.99043780042900
C         -13.36247840380136   18.13384361065676    2.93754335265137
C         -13.22829378169497   18.80956326718666    4.11518428736438
C         -14.23419539822066   19.67895026527095    4.58635782102121
C         -14.18490296552791   20.35792479644988    5.77350543194430
C         -15.18554424585278   21.26428443794403    6.30259276067704
C         -16.39421661440830   21.58214110817265    5.73500016674216
C         -17.32783035919631   22.47142182007939    6.30735799156884
N         -18.13391593113304   23.18019228531986    6.71517251559989
C         -16.89242177742295   21.07670116123438    4.51668688450374
N         -17.37432541888946   20.71158518615482    3.54000808703972
C         -14.68949449799613   21.78459373781265    7.57283121853805
C         -13.41916519789670   21.19970515881466    7.84029093649281
C         -13.05883402488080   20.28375180596573    6.74519002398814
O         -12.05403612399870   19.61066196302549    6.66663705407530
C         -12.70738772353977   21.49658955819181    8.96630210395143
C         -13.24369007630802   22.41349243845071    9.89755264046413
C         -14.51362460663671   23.00529370150670    9.63833401535752
C         -15.22740648668985   22.67687994759305    8.46278345125375
C         -15.03957461616027   23.91952463522763   10.57384600151570
C         -14.34616612336502   24.23481585860297   11.71058466908574
C         -13.09586569950916   23.65131982426699   11.96451450816553
C         -12.55632049298036   22.75992197008699   11.07722428713374
H           2.32240000897158    4.25018962417435    4.54416289595745
H           4.23297125165581    0.08334283964475    2.58205410739103
H           5.49295435831435   -0.29400955448083    4.60824022567732
H           6.14405967965575    0.38728754207852    6.88314768600418
H           5.22025704521007    2.44240124809253    7.87784205915085
H           3.63498280722508    3.83337766754862    6.60457643366689
H           0.72398340061350    2.16037004549272   -1.16284158503355
H          -0.93837655407375    3.14804298289282   -2.58546209879141
H          -3.41729876904351    7.21497264546555   -1.34105975499757
H          -1.73695163199007    7.51436396774103    1.21558223883639
H          -1.95480613747653    8.58223328683535    3.17697614828997
H          -2.38307557301828   10.22830059960951    3.69654469338680
H          -0.42555494572265    9.58491322519349    1.42560662692066
H           0.02360811119651   10.08899868078472    3.05838942532078
H          -0.86001184687519   11.19615577731075    2.00432644258724
H          -6.96778703073894    9.67983977677123   -2.83576923844089
H          -7.48759170280116   11.26967460089386   -2.23093221990458
H          -8.42951976798477    8.53411721914183   -1.21387393061855
H          -9.37841982645302    9.65749204059725   -2.19142908589841
H          -8.94941154837987   10.07828509190974   -0.53066008289535
H          -7.79195357018136   12.20432374828267   -0.18260589070446
H          -5.87090458074083   12.61707278052741    2.17860279342710
H          -9.29771530376751   13.82602215203892    0.57279599397742
H          -6.47279131445848   14.56943936177959    3.76598512966280
H         -10.71513173244888   17.26712803957408    3.81012050626771
H         -13.49243730915854   16.53686752182389    0.57056684931652
H         -14.26756896939490   18.27305867356647    2.35664516238781
H         -12.34345110128483   18.67991825964360    4.71967776981345
H         -15.10073978622768   19.80461382230354    3.94908189428940
H         -11.74623231662388   21.03686800327234    9.14239813423153
H         -16.18514010169726   23.14406170559392    8.29783080472073
H         -16.00263450451394   24.36619804391204   10.37435410364809
H         -14.75760958710884   24.93620763644453   12.42092811708789
H         -12.56249101614557   23.91174931551022   12.86652129940524
H         -11.59407395217848   22.30717630896932   11.26668896157734
