101
 SCF done       -189.685505155362          0.000493334726
C           2.67646304860366    1.14566217181086   -0.13767948980869
C           2.28460964835497    0.31308453319089    0.87687695584588
C           2.99267549412128   -0.84663011330338    1.25985749679789
N           3.52135966486111   -1.79828392400678    1.62324514621570
C           1.11126277114151    0.44859066990739    1.64988013890368
N           0.16855542129288    0.47299974961508    2.30514353381774
C           3.82409611601941    0.92860350748462   -1.00780771990368
C           3.77699278202799    1.88504603577793   -2.06062965866250
C           4.71925756399844    1.92127686743422   -3.04825094316598
C           5.77847405423681    0.98745335602154   -3.02230088708865
C           5.83959525980525    0.03278689993440   -1.96573395532043
C           4.84614463006190    0.01710659669062   -0.96024063892531
C           6.90463768539696   -0.89079714242370   -1.94648631147032
C           7.86268966428161   -0.87470267436476   -2.92335345926222
C           7.80081066522013    0.06488619579869   -3.96347476246483
C           6.78075914749391    0.97597828950512   -4.01220174156759
C           2.60784962036226    2.76049351354751   -1.88532584157890
O           2.26068556172718    3.64237616834814   -2.64182150219413
C           1.98332095497313    2.34271580759986   -0.60052321490136
C           1.03812783178489    2.99386070360185    0.13620421740256
C           0.25714520966356    4.13996137334243   -0.14906095015352
S          -0.70883962235683    4.78208321592286    1.16264371288057
C          -1.35981916496019    6.03267198843487    0.16411820413959
C          -0.84468506563906    5.93314383161661   -1.13744548197992
C           0.05582179028301    4.87420464532180   -1.30276199559357
C          -1.16931696539822    6.78656048249018   -2.20707291629854
N          -1.40759892889388    7.45925770573445   -3.10545676254206
C          -2.27529074463142    6.95442043403800    0.73276123488801
C          -2.88759925737261    7.96304409186265    0.06272559231582
C          -3.80084217136731    8.86976541763502    0.65781270375047
S          -4.52823954145572   10.09998571317681   -0.35219682768135
C          -4.28079939923402    9.00152981786464    1.94873004856732
C          -4.11333867392398    8.33537255323952    3.25447054041633
O          -3.41833267964800    7.39829057394760    3.56945381045760
N          -4.95983306223390    9.01217871054281    4.11472354669780
C          -5.08769533757251    8.69278665121046    5.52176325631072
C          -4.24191712290581    9.62897970265656    6.37705042682817
C          -5.66518459809321   10.05097887274487    3.51550857589908
O          -6.48338109041671   10.73456395733506    4.07352078796046
C          -5.20247500490912   10.05693054905205    2.11533561101637
C          -5.46100057206436   10.77735094015145    0.96641467365874
C          -6.30120498186603   11.90140635114509    0.75724506985779
C          -6.97212808933768   12.64433590933510    1.69946203284299
C          -7.70020720198649   13.67973580599170    1.03388902710682
C          -7.43340440966243   13.51049884928771   -0.40905347930935
C          -6.58575564289494   12.46205352012424   -0.55759625838935
C          -7.93630012760479   14.28888628618250   -1.45818998934373
N          -8.33737892053291   14.90053608294763   -2.34357783317622
C          -8.48779980614835   14.64437049293070    1.60800230640630
C          -9.31439111512830   15.60287483505539    0.93121132444396
C         -10.02603531069169   16.31554054184094    1.86211970095349
C          -9.59511780100854   15.88269724716157    3.18945451289083
C          -8.67931721415036   14.88991857781970    3.04571629120338
C          -7.97272194780003   14.30250422868991    4.10458224264147
N          -7.39009821156002   13.88526836822604    5.00114751113305
C         -10.99705824227207   17.31974765065033    1.57175313323733
C         -12.12925191117465   17.54188893461330    2.28813508119985
C         -13.10580863282336   18.60243123391072    2.10072502467840
C         -12.93414836369236   19.73478634998872    1.35058591531220
C         -13.90578223555821   20.74971869743291    1.21821508104626
N         -14.65740270050640   21.60434072279853    1.07148660607905
C         -11.75832276637416   20.05677588039604    0.63916730036148
N         -10.82630846388558   20.38899625205803    0.05747735010267
C         -14.26804734791222   18.28303268485246    2.91888238845034
C         -14.00377386024337   17.08462152684137    3.64399477680175
C         -12.67076975547715   16.57691794646462    3.28860115081142
O         -12.15165791778609   15.54875855343847    3.66509673455101
C         -14.91781659461309   16.54417371731700    4.50294289673035
C         -16.16199846818369   17.18900194314075    4.67941440550091
C         -16.43749090079580   18.38378493375530    3.95237263580719
C         -15.47200479971914   18.91982104103956    3.07023646002241
C         -17.68573570238319   19.01444963443467    4.13054015704810
C         -18.61750475757842   18.49248770911594    4.98603945363740
C         -18.34468234527881   17.31725370145976    5.70226818378627
C         -17.14298070786567   16.67950258373057    5.55276712953626
H           4.65685223214070    2.65518061498579   -3.83800339006882
H           4.92445133988266   -0.71415149562516   -0.17164322003429
H           6.94717946034636   -1.61333812014470   -1.14479292153702
H           8.67404501478812   -1.58657578599202   -2.90011344737515
H           8.56553120132048    0.06330725349379   -4.72563535736418
H           6.72775569034922    1.70185264307871   -4.81032674387047
H           0.84966988166679    2.59830128029222    1.12793648459246
H           0.54827243036482    4.65548277868750   -2.23324034540548
H          -2.48486979413268    6.81623727858957    1.78579591122232
H          -2.69817827465250    8.11574855962537   -0.99038802773633
H          -4.76537073022508    7.65657649437517    5.64622152311365
H          -6.14279339141001    8.79027144559018    5.78884220763119
H          -3.19251513106906    9.55005798469316    6.10144075641072
H          -4.34897333762033    9.36380244389571    7.42482570811281
H          -4.56987045691486   10.65686827979230    6.24180020964997
H          -6.97380038207351   12.47342007046671    2.75834201704353
H          -6.18575145975110   12.08302743956538   -1.48035286873914
H          -9.41344248185525   15.68263519192440   -0.13397844175450
H          -9.90552800995214   16.32807663794406    4.11460683928218
H         -10.81160618041360   17.90161030101462    0.67688226167131
H         -14.69304893238708   15.63527036083054    5.04113047895842
H         -15.71272545233215   19.82144433634508    2.52965329742084
H         -17.89077348083978   19.91943930100351    3.57783706710458
H         -19.57061864359263   18.98268455311344    5.11562999847039
H         -19.09165309010005   16.91951945446560    6.37266896424636
H         -16.92750634718340   15.77420346356138    6.10106156077942
