112
 SCF done       -229.122726272695          0.000805600670
C           8.57519604564833    9.60861979171482   -1.12197545507413
C           8.54593273535162   10.50856591136843   -0.09060178632904
C           9.70025895437639   11.06799871913386    0.49527314453215
N          10.60827371497727   11.55464739406121    1.00028437668043
C           7.35359317933481   10.91091068131577    0.54217991786638
N           6.39749950646620   11.22891297215877    1.09305869808714
C           9.76380778786358    8.98296285791502   -1.68349807492958
C           9.37285772691344    7.80633183901762   -2.39025765744334
C          10.28901796534850    6.99908255453007   -3.00196653332758
C          11.65791996026012    7.34242999046861   -2.94165612959998
C          12.05260424229655    8.52714588487215   -2.25371507304141
C          11.08340069329946    9.34148689376464   -1.62401850063757
C          13.42117265443532    8.86247362709448   -2.21196555127080
C          14.35631717115494    8.06637146682144   -2.81570831766432
C          13.96700054415511    6.89920668350991   -3.48986478973418
C          12.64660026251767    6.54500073295254   -3.55140288258677
C           7.91012820685716    7.67359973303718   -2.34403181246202
O           7.21349658431868    6.78027004245523   -2.76678168167415
C           7.42871064604882    8.93299462207498   -1.69595673783313
C           6.12503413124386    9.27515591216879   -1.82456232576421
C           5.45441133223821   10.51463120459999   -1.61077628336111
C           5.80478781888082   11.81351565009995   -1.95396754527044
N           6.98044968938517   12.27899276534021   -2.56376248131372
O           7.89205217207573   11.48912949926253   -2.77055436500641
O           7.02444542358775   13.45792645887089   -2.86981648234251
C           4.69006473253493   12.69275860580754   -1.70060905840156
C           3.64611574503968   11.95446293269204   -1.25489668805169
C           4.05813272413837   10.57867951318445   -1.16968898083212
C           3.35434831242000    9.52373850960043   -0.62329745581739
C           3.93132651120872    8.42085344904970    0.06614238321614
C           2.94341577434194    7.74266076758577    0.72705139329162
C           1.68449101090344    8.32703544099849    0.41000393062381
N           0.46944838849074    7.81923574449355    0.89448281249639
O          -0.57105764383019    8.38864475530604    0.58953648848650
O           0.51843399118661    6.83330092368568    1.60766552798090
C           1.88621339918607    9.40404782306942   -0.47090808905742
C           0.88324121781022   10.04468969181430   -1.19938719619738
C           1.06844089070743   10.81703931541721   -2.32611704285728
C           0.08650321318445   11.46396551188390   -3.07536215325944
S           0.60137945371996   12.17204218717374   -4.58147007146740
C          -1.00212030049833   12.61689773368225   -5.05209866918059
C          -1.92027247053789   12.30565652225572   -4.01646539033572
C          -1.31111473885382   11.66662980158655   -2.89482733631265
C          -2.09145981354834   11.36035549160149   -1.77035433519965
C          -3.42849636110219   11.67110837816443   -1.77525244636423
F          -4.17543990077862   11.39251718404631   -0.70555732158005
C          -4.02095002626095   12.32056552250493   -2.87344815924758
F          -5.31585723892590   12.65037028360816   -2.82557174680365
C          -3.27994577746481   12.64763412606718   -3.97854750145115
C          -1.19144549624833   13.20120815690301   -6.31334494944011
C          -2.34736038081417   13.21888241165321   -7.04874513262980
C          -2.46282295244451   13.88289349254888   -8.27992878159762
S          -1.24725872139126   14.98174706060540   -8.84459694942923
C          -2.13509629157816   15.35845851012677  -10.28500173484538
C          -3.35371612579849   14.62151965058327  -10.33124531619844
C          -3.54484917501797   13.79787274908274   -9.18814062200234
C          -4.69590521556338   13.00548548397746   -9.07380118597744
C          -5.63398248594801   13.03243440073074  -10.07391176795066
C          -6.87782368308583   12.18971964986934   -9.98025090678835
F          -6.91818544308946   11.46945887992824   -8.84849306595872
F          -7.99615027624787   12.93001022783594   -9.99716289361069
F          -6.97414855108391   11.31183236257494  -10.98990582546212
C          -5.45030146948598   13.84898617948546  -11.21766448823900
C          -6.42507254205243   13.86630867208129  -12.24664839738145
N          -7.20330722368736   13.88967218798826  -13.08545793652300
C          -4.32117133143900   14.63545929092020  -11.34359303798803
C          -1.75981355952893   16.26630049378781  -11.28002850987878
C          -0.66216887772445   17.08732375097430  -11.36723602419312
C          -0.38349650329368   18.02241072302975  -12.44147704938712
C          -1.09967774394220   18.19123096246162  -13.59992397947449
C          -0.75702169239170   19.11372696266547  -14.61150368586758
N          -0.53373507001107   19.84132119495492  -15.47043992480955
C          -2.26050864500944   17.47430764361175  -13.95527782931716
N          -3.20780103374277   16.92279129586779  -14.29995913248840
C           0.82395545828986   18.75714610788096  -12.07854698921119
C           1.30115197880299   18.26015668905302  -10.83014444159654
C           0.40397882989715   17.20033885011663  -10.36287269098046
O           0.51305917110359   16.54342843843309   -9.33893353157979
C           2.42052487033766   18.76202795351225  -10.23008624755195
C           3.12631981138766   19.81070627366214  -10.86051423374458
C           2.65476270118292   20.31715699299578  -12.10657602254002
C           1.49476236309413   19.77276623532682  -12.70589416679059
C           3.36264266648618   21.36785251183250  -12.72349486449551
C           4.48275131295557   21.89494847815729  -12.13888292668058
C           4.94631053105698   21.39516627449842  -10.91307654126982
C           4.28281005146720   20.37423164206301  -10.28720022086531
H           9.97347872442281    6.11030365421324   -3.52816407740853
H          11.40555315464738   10.24016249472580   -1.12186615194574
H          13.71682467906185    9.76059654527820   -1.69016897131213
H          15.40217652015668    8.33158306375556   -2.77702414542711
H          14.71812067076924    6.28285504807807   -3.96071834014100
H          12.34054021085826    5.64802690522845   -4.06968973607719
H           5.49000728863763    8.47198475784114   -2.19405313241856
H           4.73528168979632   13.75438346208342   -1.84924091342627
H           2.70218336461439   12.32523083171400   -0.90563757471090
H           4.98522717423446    8.25028055238224    0.16714271445983
H           3.06143981895093    6.90586922543359    1.38984445573404
H          -0.12100975967607    9.80199631056104   -0.88755595864214
H           2.07026145695977   10.89610160212585   -2.72971238369522
H          -1.68219816020665   10.90972969107032   -0.88306053595079
H          -3.74755691460367   13.19738277947297   -4.77689806530821
H          -0.30407423070668   13.62325830740956   -6.77019107357339
H          -3.20487234623249   12.65684950917535   -6.71011721936539
H          -4.84433794310000   12.37441894663854   -8.21212949245833
H          -4.20817206947366   15.24183990736305  -12.22950718006273
H          -2.46864924138856   16.33411748045640  -12.09275872907488
H           2.76095076730976   18.36676733483204   -9.28457782877473
H           1.16497489816608   20.18078679425865  -13.64785645999418
H           3.00267897205695   21.74949029015884  -13.66750144104609
H           5.01731340191522   22.70062419228375  -12.61890682312133
H           5.83120205518016   21.82267054622320  -10.46639006236505
H           4.63502632036130   19.98532682168218   -9.34317743285696
