100
 SCF done       -193.773883056523          0.000490419284
C           3.11647079360588    2.02861854659476    0.60039965668331
C           3.28541737193374    3.38365484623792    0.58557542212557
C           4.50288440967549    4.02081932533774    0.90806025807585
N           5.46806503881252    4.58142530475085    1.17258623120573
C           2.29525468851957    4.29612655302414    0.15837058239467
N           1.53836094013500    5.06840349809937   -0.22350886529442
C           4.16892491144794    1.03806968473722    0.78639034315514
C           3.72711449030916   -0.20548333770527    0.24377150865764
C           4.52752314356075   -1.31270950995758    0.24580551286058
C           5.82054636165096   -1.22747990315871    0.80759267764656
C           6.26137299706062    0.00851597797469    1.36547563521543
C           5.41503557864296    1.14012836419672    1.34501219246009
C           7.55150464719627    0.07682735796963    1.92999058592244
C           8.36888561319563   -1.02030347722772    1.94244813199830
C           7.93458578527296   -2.23612993970183    1.39265763785865
C           6.68834902217155   -2.33739763135277    0.83672866372725
C           2.34876722180967   -0.06655128612284   -0.25311609600906
O           1.66772197768625   -0.88170214944453   -0.82231672440342
C           1.92356837789114    1.30781863202304    0.18158709602993
C           0.61039964518413    1.60181750985369    0.27243068667196
C           0.00842969076813    2.67085090343580    1.00545570915123
C          -1.27798489987463    3.18300095063952    0.93336964720889
C          -2.34653246699427    2.64471284602202    0.07574778102936
O          -2.14111940619068    2.01926033620133   -0.92939663451922
O          -3.56277584367604    2.81874816944775    0.60032156423765
C          -1.29432040532064    4.18816201644450    1.94831865972114
N          -0.13550801553017    4.20940901443926    2.56983148907189
O           0.66363827853319    3.29059910429976    2.00220896216663
C          -2.35292619355380    5.11521369871718    2.25354729551894
N          -2.57560789497536    5.64482779288797    3.49392926497670
C          -1.79052162908608    5.43969750406713    4.68650140688264
C          -0.63112467739297    6.42877251477597    4.75974885364959
C          -3.66945811391984    6.53541691145270    3.48557363889438
O          -4.07106364722536    7.10375854684457    4.48124862264451
C          -4.11295590869373    6.54410835113962    2.11004940438422
C          -3.28092162978998    5.64641520502818    1.38094268636524
C          -3.69116281504779    5.68202965645111   -0.00770565483380
O          -3.29968435771877    5.09553898045868   -0.99224021733799
N          -4.75893356914689    6.60114071840068   -0.02395411384752
C          -5.40740991655749    6.96462110162483   -1.26121985497284
C          -4.89813117388787    8.30047652882255   -1.79661433695983
C          -5.01667183135896    7.11774284746433    1.22387989068501
C          -6.06004789891868    8.04927125983034    1.48701766675049
C          -6.32998999627479    8.50194374967455    2.73315318598884
C          -7.38267514814205    9.42751779986839    2.99715702829703
C          -7.87385575143618    9.94948961103985    4.18965309941736
C          -7.48961422508963    9.63129653911055    5.56613021040677
O          -7.92617116735028   10.17929680754062    6.55243146703823
O          -6.60956773891955    8.63386322843416    5.63045214903145
C          -8.91127624772346   10.83785638413119    3.76185068760934
N          -9.01829264871293   10.80818984382696    2.45844060215582
O          -8.08335754163773    9.96197346612118    1.98189300418954
C          -9.79020817651887   11.63142502045097    4.60077025436437
C          -9.32175872986528   12.44359343534611    5.56108226272296
C         -10.06673144663133   13.14067281167100    6.60513623979956
C         -11.41690625979285   13.34160126887720    6.64303233721093
C         -12.08567946754335   14.03115817687619    7.67824846882443
N         -12.68439567069476   14.58522122280403    8.48523060897872
C         -12.32251470566019   12.91390927897764    5.64731656544897
N         -13.11459977364792   12.59650612934379    4.88027265740233
C          -9.09936055181656   13.58434579224091    7.59802009571009
C          -7.78306589141362   13.31050962656810    7.12391356494688
C          -7.86010104201026   12.68706946471692    5.79604662480812
O          -6.95918619357294   12.47905001338805    5.01768471073087
C          -6.67456665583890   13.61180507558383    7.86176558092550
C          -6.83290219100566   14.20436496147759    9.13385757550677
C          -8.14556911924040   14.48069190135039    9.61620503410685
C          -9.27448243409616   14.16232924428124    8.82946076813985
C          -8.29097434135364   15.07226010970873   10.88839135120162
C          -7.19506587109326   15.37527536033472   11.64887264647384
C          -5.90331939245121   15.10147595972925   11.17358115085087
C          -5.72627492371281   14.52924259734298    9.94332092359767
H           4.17695299508413   -2.24305993329127   -0.17546961410330
H           5.76732604638048    2.06072965934645    1.78357037184025
H           7.88263121654429    1.01551814303976    2.34899033462205
H           9.35562039952405   -0.95756191196342    2.37593195745901
H           8.59260312129704   -3.09178588410931    1.41221279867753
H           6.34878090190967   -3.27042663121335    0.41175220797172
H          -0.08835206712221    0.93246196718585   -0.21735524340559
H          -4.22851184485794    2.47191920363913   -0.01440021273525
H          -1.41337085601756    4.41598421869904    4.69514799823574
H          -2.46642105649263    5.59396105233822    5.53234130961773
H           0.03798506026796    6.27793416967663    3.91736166154155
H          -0.07730980107952    6.27661265097392    5.68141324027965
H          -1.00965959139773    7.44775766418341    4.74263930289311
H          -6.49074860649866    6.98929058693445   -1.11523209854112
H          -5.16451097415849    6.17033381063442   -1.97270616615900
H          -5.09143040348496    9.10528859789762   -1.09106339898623
H          -5.39306296243487    8.53203800392062   -2.73561397816539
H          -3.82685467127342    8.24389479852029   -1.97342010237511
H          -6.66161009931004    8.39018063473637    0.65646457975305
H          -5.75436402000925    8.17406432152495    3.58638637588373
H          -6.33828611537252    8.46215721848226    6.54550158618523
H         -10.84907483860225   11.49801856971188    4.42860939999528
H          -5.68792157591850   13.39313536616413    7.48127211588393
H         -10.25502140164267   14.37632208822152    9.22479284413650
H          -9.28718466130033   15.28151924492246   11.24950411696141
H          -7.31664371173412   15.82751305847632   12.62171382013921
H          -5.04968288535753   15.34644140735575   11.78773101226258
H          -4.73431297363610   14.31675972105809    9.57229005818529
