112
 SCF done       -219.068739649013          0.000505940516
C          -3.82926736015770    3.38440175503270   -2.34551903010206
C          -4.08179231271993    2.21910716726070   -1.67260860804763
C          -4.77497837469884    1.12399655953568   -2.23091415953375
N          -5.33907913612150    0.20698824515189   -2.62854844794631
C          -3.63634670327909    1.92369775797247   -0.36564835025671
N          -3.27153734580888    1.59842497020452    0.67273632393742
C          -4.15515966622903    3.64943452942822   -3.74268847607321
C          -3.55972714494353    4.88870032466593   -4.11942728020239
C          -3.67782131468618    5.39363027271934   -5.38284019723182
C          -4.41931427451497    4.67242786558129   -6.34465270579351
C          -5.02648411682726    3.43745965695810   -5.97407311517185
C          -4.88110432618257    2.93682651658425   -4.65919626696231
C          -5.76927354471393    2.72989547686211   -6.94044156495622
C          -5.90601989295504    3.21628228228786   -8.21254961246844
C          -5.30689911627174    4.43127824449212   -8.57656314693396
C          -4.57890640248613    5.14395071068793   -7.66249370765801
C          -2.86346112212162    5.46048123148091   -2.96143150424254
O          -2.21787168469243    6.49529863996911   -2.93500523313901
C          -3.11708612655270    4.54475320580650   -1.83770309424626
C          -2.83718300296609    4.80880286702563   -0.52547681566794
C          -2.16587630895308    5.91130846845083    0.03249655365839
S          -1.35429671742073    7.20425132750359   -0.79607526860878
C          -0.84940652057122    7.93202001614904    0.70176491476657
C          -1.31654564452399    7.20328708267933    1.79934739222809
C          -2.04515015638810    6.08115076125036    1.42489653773489
O          -2.64731371098473    5.19821519066362    2.26006641291355
C          -2.62487040987835    5.26355847196176    3.60469047225903
O          -3.24829507165973    4.46156931147206    4.23551130899741
C          -1.82696123454566    6.33355933723529    4.34711729849984
O          -1.76309126794302    6.31730191966667    5.54348297224251
S          -1.00296422944113    7.63907084587111    3.46858067509939
C          -0.09988324701604    9.12302799318252    0.76692043626118
C           0.33184399268124    9.79726656342271   -0.33576476731253
C           1.05657161906973   11.00517578224268   -0.25101302651103
N           1.50322883534727   11.71474216208571   -1.33856412945185
C           1.29917530707227   11.38193123279772   -2.72790771934856
C          -0.10480077423754   11.74928433094916   -3.20122430583744
C           2.18469934431722   12.89209376978329   -0.96219850636473
O           2.69034366857307   13.65868754927609   -1.74966765791676
C           2.12467648233079   12.87940030373358    0.48549610472309
C           1.45006072800485   11.71006357074089    0.89242479251281
C           1.42387076402499   11.70357748968602    2.33764250311517
O           0.94311091857948   10.92648262413122    3.13902795055321
N           2.10703642030463   12.87677554322851    2.71213216945827
C           2.23931085912870   13.20626388363323    4.11120733731720
C           3.52165847533133   12.63134435929062    4.70963903898585
C           2.52791056145224   13.59398001058265    1.61487835402984
C           3.19793548647877   14.83910049547608    1.54455225633733
C           3.89207433444356   15.48812053065232    2.51693150326196
C           4.51406259214036   16.75036071935294    2.35264078150156
S           5.64058327308281   17.31117315018976    3.54989208925069
C           5.94126684741186   18.79490691811203    2.69446772292816
C           5.17308828243069   18.83870972075784    1.53227784026690
C           4.37792511036512   17.70495662778355    1.34014683528128
O           3.48915781687738   17.52052710816898    0.32776541213221
C           3.23482653447711   18.39397284624458   -0.65972635670110
O           2.34793023985604   18.16297706686592   -1.42903299316951
C           4.05134119206015   19.67179944646881   -0.83703805163220
O           3.89817799323691   20.36823173435251   -1.79781896045438
S           5.21935616218032   20.18076668816796    0.40298430380180
C           6.84578093199062   19.77351109683350    3.15269151136002
C           7.57887776182221   19.65553331683010    4.29342760439319
C           8.48387334360580   20.65377325991507    4.71203600626634
C           9.25709510308497   20.57660248517638    5.83678238548712
C          10.20900132737316   21.56498981730880    6.30994029276131
C          10.49657363118643   22.77570440331898    5.73308091314757
C          11.43739559934843   23.69354187920652    6.24649963047275
N          12.18767610041054   24.48479741655492    6.60558442736445
C           9.90919287496302   23.29040293266666    4.55861168120866
N           9.48062889485958   23.78306982333105    3.61352108838683
C          10.82027243751909   21.04623544582461    7.52900059890620
C          10.25640973598024   19.77012507751047    7.81521416794128
C           9.26371039587749   19.42874683350384    6.78416367977382
O           8.59616417678759   18.41626711498927    6.72929191419299
C          10.63814053898258   19.03822593710442    8.90261253190576
C          11.62220277764527   19.55817552541476    9.77232446564990
C          12.19199257381325   20.83420869090279    9.49398659777781
C          11.77587008298041   21.56911393960176    8.36014431780174
C          13.17379203512967   21.34421289929900   10.36772389814207
C          13.57479729187732   20.62951972201079   11.46358697145378
C          13.01314646981995   19.37319287888810   11.73644220631237
C          12.05751577499170   18.84887377922042   10.90883817541877
H          -3.21329928834731    6.33281383437240   -5.64420643250965
H          -5.35581819683831    2.00130255989454   -4.40965487200661
H          -6.22774967441467    1.79420600543708   -6.65637442920885
H          -6.47702393623645    2.66658016419072   -8.94551537889643
H          -5.42517667715119    4.80010092227113   -9.58432740179697
H          -4.11551513183645    6.08033404889402   -7.93671948532309
H          -3.18740503538371    4.10562344780222    0.22145957502970
H           0.12475879736498    9.50450349029467    1.75599047708468
H           0.10448216773950    9.39844697498284   -1.31461623108980
H           1.49573805076798   10.31733158811255   -2.88136805384270
H           2.03739852265155   11.96319007057092   -3.28760675047224
H          -0.86220241054941   11.20928343300216   -2.63762381922231
H          -0.21158641328771   11.50327145900905   -4.25383499183516
H          -0.27099709286648   12.81622373881902   -3.07529225258922
H           1.38090198747649   12.75204236366204    4.61578336782367
H           2.18569558337984   14.29015247691646    4.23202421193950
H           3.48581292294720   11.54562857551112    4.67155383263232
H           3.61546692642128   12.93911676969938    5.74733682180658
H           4.40062188538080   12.96382148557212    4.16132073343366
H           3.16239862411364   15.27252647215440    0.55435044423596
H           4.06047298047970   15.03519698667783    3.48194029285839
H           6.94247697425900   20.65696260638842    2.53288409782818
H           7.47638894414681   18.76870571874644    4.90381766053411
H           8.55974384946580   21.52964494772129    4.08075850330328
H          10.19404012174549   18.07290368683333    9.09560280492094
H          12.22802771331997   22.53107587586339    8.17909773622735
H          13.60317452855703   22.31194253139106   10.15379093285045
H          14.32740714125818   21.02870411523883   12.12681169111585
H          13.34161306528354   18.82292305060782   12.60539838201896
H          11.62154763121672   17.88197509000123   11.11348823313665
