108
 SCF done       -186.304045840497          0.000941085885
C          -2.45651522404438    5.24752202226465    4.12418650419338
C          -1.54178866644565    4.58231081301869    3.35614051367637
C          -1.21210700858604    3.22241112342426    3.53656205559237
N          -0.92074998264168    2.11705214502210    3.63902981378543
C          -0.75665636600942    5.19076551476989    2.35392211960156
N          -0.05090547412859    5.63869607088940    1.56767071053681
C          -3.11574748225721    4.71957306595923    5.31202847401532
C          -3.60821274282706    5.81198085692800    6.08585414274637
C          -4.25230885792348    5.61599425919168    7.27399761497028
C          -4.44562098176370    4.29802204689180    7.74437506797404
C          -3.96765581873708    3.20156146769651    6.96905141182098
C          -3.29849420942706    3.43343107617773    5.74609636574658
C          -4.17431787884808    1.89103384945486    7.44640487270717
C          -4.82064919697256    1.67191813423961    8.63212723105950
C          -5.29100449627836    2.75181357210921    9.39463730685757
C          -5.10663200220189    4.03648748799548    8.96097338143435
C          -3.32680151689876    7.07597326496796    5.38420551940649
O          -3.53971337955793    8.20539267351839    5.75652251152992
C          -2.77450356941731    6.66659486089678    4.05579552682167
C          -2.77114304265212    7.53911330522049    3.02757774695031
C          -2.62667508251701    7.22971519064860    1.62252464061035
C          -1.95358869539206    8.07795647961356    0.74884636866518
C          -1.82452713381744    7.73531562232880   -0.59960971682153
C          -2.42167155630264    6.53241940597921   -1.00354784200146
N          -3.12058997201972    5.75876341610812   -0.19802215892455
C          -3.22620209522512    6.08765276277705    1.07071190508257
C          -1.10263935568675    8.61636914629132   -1.48643641391376
C          -0.74455744546789    8.32806579795064   -2.75531955111952
C          -0.02731506724551    9.24318071733140   -3.57723472731281
N           0.35702929093340    8.95478537278161   -4.86789648179973
C           0.05724114058190    7.75679435786589   -5.61298119508049
C          -1.37877022931223    7.75456142258340   -6.13268282361550
C           1.06151260479840   10.01635913778529   -5.45837515235917
O           1.49457864049082    9.98040108965406   -6.59540686782079
C           1.11095613410285   11.02890346561770   -4.43075490075392
C           0.42879003428313   10.52311568672669   -3.28830426849350
C           0.48231263635650   11.53447214142183   -2.25926338715724
O           0.04674606206456   11.57058718271638   -1.12354181426876
N           1.20518433104974   12.58865354147712   -2.84368408776908
C           1.43136420021326   13.82324201248065   -2.13262947774221
C           0.47570412532706   14.92529604365380   -2.58405963707083
C           1.58366456933632   12.30161204404542   -4.13603399468218
C           2.34552134460070   13.18902654670302   -4.94955621991241
C           2.69018544930977   12.87851976476612   -6.21743349740349
C           3.47533444821398   13.69399655302608   -7.11315617738074
C           3.92232779373121   14.98281644257979   -6.82240859380218
C           4.68820480591439   15.68254724069614   -7.75828590920645
C           4.96758579240515   15.02904453679943   -8.96984574960524
N           4.54845707390461   13.81427469308612   -9.26108214064329
C           3.82782983870067   13.16679422937150   -8.36809967694048
C           5.19197325775359   17.01641278975861   -7.54488599696688
C           4.96733693686343   17.79043951414765   -6.45902936365621
C           5.51192516075825   19.09614978557777   -6.35516110230768
C           5.32007166294028   19.93957905744231   -5.30140616776419
C           5.85197752102236   21.28522414903557   -5.15865137717545
C           6.68710778117419   21.93839404470683   -6.02685237433580
C           7.17093864825915   23.24876636982035   -5.82562278869704
N           7.60138869183079   24.30861159243495   -5.72707510205236
C           7.19552504913158   21.41790163297212   -7.23554310812711
N           7.65661216149535   21.07283216608642   -8.22933292073939
C           5.34607399615227   21.83125892353884   -3.90459695687001
C           4.53862052185312   20.84543618373855   -3.26869511514110
C           4.49762686678448   19.63205711623944   -4.10105287380392
O           3.90752800007587   18.60119688634920   -3.84670371533491
C           3.92770684832257   21.07631022788677   -2.06965252033236
C           4.09718199421823   22.32879173229396   -1.43896284461872
C           4.90219512859663   23.32134264962838   -2.06892988544049
C           5.52340813183149   23.05291134587555   -3.30974750124675
C           5.06424573883017   24.56897952309874   -1.43262297289682
C           4.46074046660173   24.82562148028688   -0.23180697181650
C           3.66823066888917   23.84757022106125    0.38766735368374
C           3.49041068877312   22.62583901687531   -0.20278089483671
H          -4.61291002067908    6.45705694182381    7.84735911202482
H          -2.95668291737419    2.58582726453671    5.17271352120413
H          -3.80792578884783    1.06334999484588    6.85709982856774
H          -4.97312911430974    0.66466555298732    8.98972945685668
H          -5.80020167684163    2.56035387816282   10.32728015187222
H          -5.46634829350452    4.87170104498010    9.54388697401869
H          -2.97529208270332    8.57480382556292    3.27989255359414
H          -1.48986107488843    8.98135476495636    1.11794178903467
H          -2.35660058964662    6.18206742124571   -2.02377554291299
H          -3.83924396743701    5.43491585864717    1.67959178182075
H          -0.82608875658587    9.57681356762282   -1.07096346987393
H          -0.98263136068943    7.36726799400140   -3.18649500074219
H           0.24991927344591    6.87809023189501   -4.99101203602377
H           0.75127351787691    7.74716380392106   -6.45830960613478
H          -2.09213991456532    7.81687860492136   -5.31361268052188
H          -1.56653605492852    6.84270870042251   -6.69287078680353
H          -1.53508188703896    8.60553619923906   -6.79111860609025
H           2.47194614139240   14.13577382857778   -2.25847428573757
H           1.25851468554087   13.59782477829740   -1.07643079431847
H           0.58457495685462   15.12597865986870   -3.64765149201545
H           0.68243134634483   15.83918116783854   -2.03416870919769
H          -0.55224649506831   14.62697396424258   -2.39278980473632
H           2.65058473552801   14.12436946360364   -4.50352858732453
H           2.37177866553755   11.92747985366025   -6.62320135061491
H           3.67762086468213   15.44326124183271   -5.87815253764858
H           5.55403676375679   15.51988330541751   -9.73604748724281
H           3.50864224654116   12.17152281283580   -8.64807577115394
H           5.80254111547225   17.41463128845525   -8.34750068660710
H           4.36284133829231   17.44336701362338   -5.63583181124981
H           6.11699489337103   19.42858293636497   -7.18893057645572
H           3.32063785517741   20.31163376524991   -1.60793490364794
H           6.12486791595544   23.82642140260384   -3.75970329964792
H           5.67554612599597   25.31836017802458   -1.91369568270709
H           4.59068407610961   25.78421144457480    0.24767786846406
H           3.19925571695103   24.06728838830903    1.33509771363536
H           2.88121605221345   21.86920279271076    0.26977061679195
