102
 SCF done       -208.944136935707          0.000893963019
C           3.96553169214188    3.48251048239230   -0.65144440436397
C           3.89508628131980    4.49617447933303    0.26359858339046
C           4.97385549578124    5.35761103124652    0.56338651634999
N           5.81622843713857    6.08280405336884    0.84654629077495
C           2.76737885016842    4.76761241537052    1.06132193595153
N           1.87461132822531    5.02001252440765    1.73786272576549
C           5.16422023761560    3.06994092747381   -1.36703827157645
C           4.97619543043263    1.74295827446005   -1.85636726339515
C           5.95480673228531    1.08873671081027   -2.54965824064405
C           7.17968758171853    1.74660732531439   -2.79875828478893
C           7.36666205197751    3.07974045584222   -2.32810671602980
C           6.34025742128381    3.73022046169248   -1.60719306152437
C           8.58962238602712    3.72894557362221   -2.59446956708789
C           9.58200477243515    3.09351727658247   -3.28990353317095
C           9.39784780562562    1.78110112314147   -3.75117505874182
C           8.22309674825649    1.12163577492485   -3.51014982247323
C           3.62392202320271    1.28187718311344   -1.51302321937332
O           3.12342066544090    0.19979466060092   -1.69334470877410
C           2.93983420175258    2.48719542849819   -0.92748555918894
C           1.59515236188836    2.49914186275726   -0.86091361658473
C           0.70351579777556    3.61886187421871   -0.63751761439207
C           0.93161314142946    4.89570790655275   -1.16212771037648
F           2.02178537985293    5.11660135813556   -1.90931803517228
C           0.05120943861306    5.94027943715563   -0.93919152024771
F           0.34039827600929    7.14660386799467   -1.42749818242847
C          -1.09577788514097    5.76877876134508   -0.15809643814043
C          -1.34606163061799    4.48951990458622    0.33930055708490
C          -0.47787620865871    3.43915412856374    0.09004278885983
F          -0.75562226133578    2.22814276906596    0.58177935947885
F          -2.46451823349129    4.25962702082471    1.03581179773749
C          -1.99824913997817    6.89970336476719    0.01812166631599
N          -2.44975605095591    7.39301925610369    1.20587389391756
C          -2.06749139573506    6.97805579097774    2.53605541350782
C          -0.58833088476905    7.22587674785524    2.81551557864626
C          -3.25541721449077    8.54951483832572    1.00509727012826
O          -3.74438326538614    9.18080607854166    1.91288615271306
C          -3.29884028592639    8.70300437331704   -0.43148780754212
C          -2.50784804838591    7.67111972412459   -1.00424932322972
C          -2.56775334737027    7.80971876242405   -2.44171119445880
O          -2.10795678525288    7.14344997634835   -3.34112763691589
N          -3.35291089097526    8.96967354256135   -2.64563862436840
C          -3.69728425527777    9.34857347514527   -3.99630850832413
C          -5.17731794631126    9.13336359142597   -4.29731690039286
C          -3.78940671314165    9.50486088400807   -1.45364048035788
C          -4.54575947340298   10.68876841103281   -1.19885962710023
C          -4.80292178447427   11.70328477194593   -2.05121476240464
C          -5.48339478385989   12.93349925205029   -1.72377138063523
C          -6.29671215435006   13.14356758459118   -0.59864563628378
F          -6.57328453520790   12.13199315535312    0.23042904871172
C          -6.86356083198676   14.37765455065744   -0.33065044657280
F          -7.66947496696883   14.50237224818290    0.72740459749076
C          -6.66516330924038   15.47808198853398   -1.17100965930683
C          -5.91705744774726   15.25840636425980   -2.33008030766490
C          -5.33972770053662   14.03014021648548   -2.59061749131753
F          -4.60092831190318   13.88438583366674   -3.70164528891296
F          -5.72224490360457   16.27687159734102   -3.17754124687758
C          -7.22816531516080   16.78687389135847   -0.88326945374936
C          -7.11148580388335   17.39412161769153    0.31461401980189
C          -7.70843449993758   18.65508426143218    0.74099590893925
C          -8.68248164815192   19.34923294083731    0.07886016644658
C          -9.24964224850705   20.55598839418730    0.54402290190072
N          -9.74372959467857   21.54039005056152    0.86542073063638
C          -9.26923883135273   18.95130208789041   -1.14233541351601
N          -9.79771797657139   18.68068618828855   -2.12437026629585
C          -7.13470223715157   18.99960612830963    2.03342426081868
C          -6.22971671964835   17.97134869694118    2.42790021052195
C          -6.16769726011209   16.93698721418212    1.38822214792698
O          -5.44297920014110   15.96954729370226    1.35444851477633
C          -5.54927496081483   18.02213398825892    3.61140541433042
C          -5.74908024293689   19.12198313820366    4.47378307096141
C          -6.64646961210287   20.15926839019048    4.08412213714828
C          -7.33360755906574   20.08178962809237    2.85205319035362
C          -6.83350640875824   21.25576205626298    4.95092672578018
C          -6.16991638737280   21.32427688644325    6.14553378196038
C          -5.28859493446015   20.30165017869247    6.52871726800348
C          -5.08258102380383   19.22389966391536    5.71089608783442
H           5.79458414624142    0.08247070676639   -2.90705431431359
H           6.50134350561276    4.74388953760054   -1.27533522339206
H           8.72747122238031    4.73794544585670   -2.23499846299352
H          10.51507937273252    3.59877320223867   -3.48877059419154
H          10.19126832420369    1.29575183813011   -4.29935226820280
H           8.07596903183079    0.11163381757891   -3.86332719258991
H           1.10826694936186    1.54287391491586   -1.02917383142053
H          -2.31836471713505    5.92619503147669    2.68797000371132
H          -2.68086442089395    7.58344036937979    3.21030333992066
H           0.04795079766329    6.58979955888260    2.20554277720793
H          -0.37914285465673    7.01185287915508    3.85935810581361
H          -0.33799441304930    8.26579644477904    2.61932598618313
H          -3.09545074870368    8.69621584398717   -4.63713893142973
H          -3.39608400711748   10.38120635601094   -4.19055999909009
H          -5.43438856789208    8.08545361602600   -4.16275829379183
H          -5.38354839832616    9.41089465946068   -5.32724219958748
H          -5.80667068740812    9.73015917561771   -3.64153743491505
H          -4.85486699597291   10.75445161514616   -0.16484256033187
H          -4.42556413931720   11.67430417347613   -3.06136141427583
H          -7.72471731096500   17.27578658435786   -1.71144517358589
H          -4.87100133904250   17.22804237440442    3.88588855562104
H          -8.00092534629467   20.88534461631118    2.58358285287081
H          -7.51380638923274   22.03980516180221    4.65267396330404
H          -6.32075443137918   22.16723978689649    6.80292518003411
H          -4.77379773084096   20.37252818183375    7.47505139451181
H          -4.40555027911046   18.43365097907282    6.00000730461906
