106
 SCF done       -205.180882441707          0.000538988308
C           0.10137626612796    1.97106818532653   -5.49810524911874
C          -0.49408838330010    2.48402610306912   -6.61778360494590
C          -1.39762747636580    1.76075537697056   -7.42442360218437
N          -2.13845010013670    1.21536148167093   -8.10994185676054
C          -0.20614352668413    3.76480807637769   -7.13097094038425
N           0.03425470572581    4.78187879807690   -7.60732736594402
C           0.04101601247341    0.59262972167765   -5.04018079119473
C           1.13528115836646    0.35534369507373   -4.15460915004411
C           1.34260257271916   -0.86980236647314   -3.58762273412063
C           0.44857885335989   -1.92429180065352   -3.87915519323601
C          -0.65592256066548   -1.68684251186155   -4.74900822725758
C          -0.84495601616246   -0.41085946891279   -5.32591049284343
C          -1.54583283663373   -2.74584279108419   -5.02140372339769
C          -1.35458568899475   -3.98159222510626   -4.46607071553812
C          -0.26585972163390   -4.21532324256091   -3.61239559577318
C           0.61620490463630   -3.20911119730848   -3.32547955899062
C           1.90272422734981    1.59811389861778   -3.97738131746861
O           2.93029830664924    1.77763479702624   -3.36769976876412
C           1.09659704174515    2.64253256038093   -4.67958363856761
C           1.25793756819465    3.94959313667826   -4.38274866123350
C           0.37274316944636    5.03541119624891   -4.68066991702313
C          -0.99513397356990    5.13764890240157   -4.48734628879176
N          -1.89309205913713    4.18136319330634   -3.98222452214864
O          -3.03744145541054    4.54508244888289   -3.77633847742915
O          -1.49388648025131    3.04358655973073   -3.77380145194537
C          -1.42685016765509    6.47669309010697   -4.81235665247851
C          -0.34571094460058    7.20352345236429   -5.17133629737941
C           0.82429592441243    6.36177140410221   -5.10787514745045
C           2.09488661997967    6.66818600070112   -5.54651081230812
C           3.05265852091756    5.74106721720645   -6.05230972169780
C           4.01540797096243    6.42742869695420   -6.73603824603405
C           3.76000346703440    7.82733013166744   -6.62768313616561
N           4.59014142869215    8.79988592110258   -7.19854832845573
O           4.27208078683284    9.98029655902467   -7.10038957591657
O           5.58788868531134    8.41685805592282   -7.78466065890453
C           2.61776487125509    8.02270476563255   -5.83705421023365
C           2.17987280440683    9.24412231622385   -5.32460199643913
C           1.37114655581900    9.42040782285606   -4.22334478546785
C           0.87165086062775   10.65219245924254   -3.80309824566506
S          -0.00415030798429   10.72335330249450   -2.28536936874005
C          -0.37842062824815   12.42333175364542   -2.45441414355319
C           0.17168168873685   12.88160015503974   -3.65319162375703
C           0.88165551146447   11.92177811272478   -4.41078235730865
C           1.40869081610188   12.48241048167082   -5.60070563646553
C           1.12139374477622   13.80471210718211   -5.73243825396587
C           1.51255798602757   14.70763365393009   -6.84015836438960
S           0.16694321305385   14.43478337552845   -4.40432961322725
C          -1.14045977818542   13.17248345321757   -1.54741720748977
S          -1.66855866265248   14.75850346446590   -2.01709502095825
C          -2.52908038734814   15.00133252211749   -0.53009298384622
C          -2.37362840526567   13.87636443428155    0.32818371185825
C          -1.59726250914325   12.83140179206455   -0.25039160965877
C          -1.34266319127773   11.66349128247821    0.47722097846078
C          -1.85182409169118   11.53020535659232    1.75261981544082
C          -1.58615616083895   10.35714005862391    2.49841096151057
N          -1.35675266725770    9.40332478260829    3.08927983941819
C          -2.63309906519044   12.56855192391336    2.32769731787254
C          -3.13948611382449   12.40664815228853    3.64014528123271
N          -3.54957076698247   12.27860811696464    4.70142959080401
C          -2.88926818071684   13.72648266280262    1.62236251190125
C          -3.29590990964016   16.11819921766063   -0.19173208193520
C          -3.58987618953022   17.24582262966167   -0.92164915573755
C          -4.43624628123612   18.34197717586717   -0.49185171076835
C          -5.01288263436959   18.51075880514708    0.74220252822485
C          -5.82078387604442   19.61377127949730    1.09063849635436
N          -6.48476562761729   20.48372545088500    1.43656351452260
C          -4.87871873927035   17.62847503141150    1.83348901496293
N          -4.80567535678912   16.94915959042611    2.75743597079886
C          -4.56107247625298   19.26392316778483   -1.61700241931768
C          -3.77816290931225   18.76708397286529   -2.69999904207562
C          -3.14070131468083   17.51224789988158   -2.29111558183640
O          -2.38836578331155   16.81971782531154   -2.96152375897640
C          -3.70187800461288   19.41756807668634   -3.89793773128192
C          -4.42479856285705   20.61836326907540   -4.07487867751564
C          -5.21323214910106   21.12112383216039   -2.99959123541953
C          -5.26828007626534   20.42634108779058   -1.76825954220844
C          -5.93532158302276   22.31622176522268   -3.18888678317581
C          -5.88281220471038   22.98430795010228   -4.38269323907958
C          -5.10583907195543   22.48893418932851   -5.44000732020334
C          -4.39147841026311   21.33087256674692   -5.28928554620463
H           2.17693013604166   -1.03318668680263   -2.92160677935602
H          -1.69661917771052   -0.24967960260102   -5.96816225179733
H          -2.38114945724753   -2.56109849664678   -5.68057215601170
H          -2.04137305200427   -4.78640052441308   -4.68134827647985
H          -0.13051481716800   -5.19641506118851   -3.18235074909304
H           1.45519502246072   -3.38357269459085   -2.66785418378861
H           2.14730579733206    4.20123265692201   -3.81099069252563
H          -2.45326993545127    6.78674852112135   -4.77553805918153
H          -0.35098203132752    8.20527591027333   -5.55228887496925
H           2.94996419767501    4.67460508362629   -6.01611012776210
H           4.84014180958876    6.01523347162620   -7.28685295570280
H           2.60359474301644   10.11878647932915   -5.79484935110133
H           1.11433132496085    8.56550983647834   -3.61129824796407
H           1.98227114272869   11.94861927347779   -6.33494106548492
H           2.14739773851087   14.18041563831690   -7.54745868282416
H           2.05121047014358   15.57280609417385   -6.45519921925507
H           0.62910615511909   15.07514449861515   -7.36232305777316
H          -0.74510448625334   10.86803441252061    0.06183637861111
H          -3.47657941773337   14.50201967782208    2.09051346219751
H          -3.73963067221370   16.06114015994660    0.79190785456339
H          -3.10048375039320   19.01939824975949   -4.70170835559265
H          -5.87632583604839   20.83391682869954   -0.97661807471130
H          -6.53221141551340   22.69440402160648   -2.37212607566237
H          -6.44058886852675   23.89859282905499   -4.51800006486954
H          -5.07608268679122   23.02840068742868   -6.37468373388364
H          -3.79175570723840   20.94417258619166   -6.10021552408129
