110
 SCF done       -196.732158871218          0.000654001821
C          -0.97846764621067   -0.23365191984692   -4.53004460634609
C          -2.15784033581932   -0.74659777642431   -5.01079377078010
C          -2.27959169052218   -2.01867700817874   -5.60801414115191
N          -2.46158017517491   -3.04026741072685   -6.10054573461450
C          -3.41277298180482   -0.10358694276915   -5.02296884481638
N          -4.47162208512105    0.33842468865684   -5.09418215356596
C           0.31245653607114   -0.90868114615477   -4.61113762137019
C           1.31194884777328   -0.02645424706575   -4.11610600521477
C           2.63043163981057   -0.37505173887657   -4.07300514375711
C           3.01926859260360   -1.65293649509407   -4.53361369824744
C           2.02520709977403   -2.54517078349344   -5.02792181374477
C           0.66659974895240   -2.15387458595688   -5.05869948223641
C           2.42299125911604   -3.81789116269846   -5.48516295630842
C           3.73880036368378   -4.19245837551096   -5.45718436902359
C           4.71672214456910   -3.31292256620960   -4.96975298913050
C           4.36444690902003   -2.07009846807242   -4.51769722674740
C           0.68736139678848    1.23862440432511   -3.69152282696665
O           1.27861854518021    2.19786757288882   -3.23644787916024
C          -0.76546156554769    1.06786536585972   -3.91932270261183
C          -1.78775967882032    1.91261763825886   -3.57152188377683
C          -1.78877072827643    3.21408116565358   -3.03879465227802
S          -3.36391548109833    3.91524256844411   -2.68572376979104
C          -2.66860117990244    5.41579971560307   -2.17644497386403
C          -1.26637380795833    5.35452003019493   -2.27937807739126
C          -0.79082019755634    4.12983819907976   -2.75718436431578
C          -0.38735333399934    6.40303951963175   -1.96349400115068
N           0.36309829814101    7.23971668777613   -1.72600575050843
C          -3.52549450506259    6.45853643167148   -1.75808756648152
C          -3.11445867141457    7.69726044819156   -1.37574289264825
C          -3.92670912337398    8.78463989845227   -0.97174743599056
C          -3.48201740231832   10.11454936722748   -0.86447757171329
C          -2.10238235307553   10.61072445337585   -1.10140634832656
C          -4.56017734491104   10.97434903090347   -0.50432469414923
C          -5.67905956837604   10.16527283764601   -0.35582398543253
C          -5.31996300063863    8.77939220407423   -0.62522741479600
C          -6.28322785272008    7.82499942291250   -0.43021621072394
C          -7.57392941838292    8.24442830780107   -0.04154439315288
C          -7.82984868032042    9.56948709278614    0.14869928602382
O          -6.91514685140928   10.51850322769049    0.00759532096867
C          -4.47174317375087   12.40172937532165   -0.32548902314101
C          -5.49758134838556   13.20278632538033   -0.03487436636363
C          -5.36695711591608   14.67106084023661    0.18906489146177
C          -5.61761710459883   15.02622251058614    1.66101657942378
O          -5.21222936634976   14.44445122990235    2.62001270022868
O          -6.38804534608743   16.12355649797050    1.73827342964007
C          -6.63787026390431   16.68313161708124    0.45494373514759
C          -6.42388324569601   15.51820761264492   -0.52884257462122
C          -6.07549482577228   15.91959420198044   -1.95714535763773
C          -4.98475980835036   16.97762084264250   -2.03501986344015
C          -5.27598476554256   18.20466996732288   -1.18310655385733
C          -5.69862937273664   17.89630750345856    0.26277313750858
O          -6.35530965436709   19.08232767373425    0.70025567195227
C          -6.76109467830934   19.84037746697646   -0.32036482567271
O          -7.35251457304590   20.86735297101036   -0.19388664224747
C          -6.37280291371193   19.17320627361464   -1.65838356301060
C          -7.62713941301964   18.58663152148791   -2.19218465993660
C          -8.14842415976848   18.86461410845595   -3.40184397723046
C          -9.45176231433960   18.43548657052350   -3.90711120715837
C         -10.20943537312153   17.40531562645111   -3.42281920467223
C         -11.45624985974383   17.01972277170828   -3.96293124413392
N         -12.46895266549617   16.65658883136746   -4.36121294974847
C          -9.82564755734976   16.55971854559854   -2.36199935601101
N          -9.55224890311297   15.82360439351893   -1.52348537987073
C          -9.76278091613189   19.26129860626773   -5.06245075761534
C          -8.62620214670094   20.06438717036328   -5.37330165312612
C          -7.55177039888400   19.79505648350235   -4.40768486855704
O          -6.42119393122566   20.22857836326684   -4.42463691814346
C          -8.62784627483576   20.93920736159065   -6.42215854698683
C          -9.79015390461666   21.06252924069794   -7.21485555925266
C         -10.93480068211445   20.27090592589984   -6.90389533566827
C         -10.90204125531478   19.36747426384930   -5.81840953356486
C         -12.09251145817574   20.41031173180392   -7.69694012315856
C         -12.11997514032583   21.28782722263049   -8.74643876121512
C         -10.99244884329529   22.06511470851077   -9.05232673549285
C          -9.85210822606716   21.95439208828649   -8.30354400819973
H           3.36755471039818    0.31660727912670   -3.69271859448151
H          -0.05973593268091   -2.85603357061575   -5.43527644787004
H           1.66634569687595   -4.49137545482427   -5.86041458319394
H           4.03336845154681   -5.16922707032821   -5.81096102908068
H           5.75046297567975   -3.62479619120916   -4.95428360444610
H           5.11289650180804   -1.38809269812210   -4.14119046614656
H          -2.78850426853674    1.52710883419762   -3.72813327695134
H           0.25328214865683    3.91199905279572   -2.89426202252078
H          -4.57733589224107    6.22040699983418   -1.79726608819510
H          -2.05460606924718    7.89940823158350   -1.41384127414476
H          -1.39512310588349    9.80153568381614   -1.25213495066345
H          -1.77040331212935   11.20472406912559   -0.25060625732820
H          -2.08178381800977   11.25165838251063   -1.98349293402470
H          -6.09089993494371    6.77122477672116   -0.54450292148497
H          -8.35831436042145    7.52298038601121    0.10877147829233
H          -8.79347154424464    9.95937842304979    0.44099731251889
H          -3.48332725352138   12.82526012267782   -0.43922789715211
H          -6.49273344402116   12.80413954598687    0.08821151651302
H          -4.35109748471822   14.99975684878879   -0.05447042945220
H          -7.67407308883687   17.03400454522055    0.46588853533653
H          -7.35633381512678   14.94396527312807   -0.55917722792887
H          -6.97566399768610   16.28769797121112   -2.45074158006516
H          -5.75299219721005   15.02533229847609   -2.49395835652732
H          -4.85219578489225   17.29271985782039   -3.07121692314913
H          -4.03651755101580   16.55198857965771   -1.69952635533965
H          -4.35743917899167   18.80102698175772   -1.12962260498970
H          -4.83339245684842   17.75418382373199    0.91929192674335
H          -5.98044616186200   19.90868647449988   -2.36205040308337
H          -8.20380312858461   17.98982946251791   -1.49765955054959
H          -7.75380657312100   21.53501444958234   -6.63918275848339
H         -11.78540446353675   18.78717986550289   -5.60283744951907
H         -12.95753391894863   19.80920053598992   -7.45850411655848
H         -13.01139189191361   21.38852322064236   -9.34695542033403
H         -11.03237800666792   22.75277094363272   -9.88359086385498
H          -8.98161659071568   22.55079396808911   -8.53381563263565
