112
 SCF done       -218.685902589932          0.000882748470
C           2.24587192431460    5.51386155475120    2.91212747265067
C           1.49387652431395    6.46227615802831    3.55127912646420
C           2.00478529790688    7.70430575804629    3.98268965524071
N           2.37160565063004    8.73252747064325    4.33599699864532
C           0.14967281100350    6.26416355600334    3.93089124779691
N          -0.93055261650934    6.12114312672090    4.29182900185065
C           3.69412900897029    5.53932691174787    2.76063550918205
C           4.15283953808599    4.20180246466535    2.56867899886685
C           5.48286722145633    3.91064691597791    2.46212803110349
C           6.42615731437721    4.96026722685830    2.53158242604387
C           5.97107257980787    6.30156159457025    2.69462086067642
C           4.58909663144873    6.57419050701797    2.80973621090981
C           6.92283576988897    7.33998051516921    2.75055799069723
C           8.26078862402846    7.06830493907102    2.65958459869304
C           8.70832359153285    5.74747272323168    2.50616653269473
C           7.81089535791332    4.71617101225840    2.44244878566519
C           2.99907509177766    3.28806111030741    2.51165164302609
O           2.99574805849372    2.08623918823466    2.40643188050036
C           1.79808259732733    4.18363927205719    2.53876225796777
C           0.59003296265582    3.71699186564860    2.14842678345784
C          -0.55890390826177    4.46660386783087    1.76782708372697
S          -0.47426633968682    6.02975633945171    0.96803703453901
C          -1.87646418022592    4.10139611583278    1.90364481087139
C          -2.63682773507537    2.97114954386675    2.47457743335520
O          -2.24754545581971    1.93875587376576    2.95391511682413
N          -3.97030835040547    3.33270056673442    2.31624355935946
C          -5.06543713747435    2.51320338397905    2.79118357118540
C          -5.40207044847658    2.83416084591736    4.24277338217634
C          -4.15705509893747    4.57131539818846    1.71257567688912
O          -5.22392273004817    5.07625152965425    1.46972939660279
C          -2.79520706409379    5.06361153497071    1.44598541853271
C          -2.22029225732263    6.18607931847953    0.89108741674119
C          -2.89269058702131    7.30792377479533    0.35327001641953
C          -2.28252264595815    8.35312873304766   -0.25802400945973
C          -2.95887436141207    9.48629892778312   -0.77929857995398
C          -2.39491853942485   10.49607926467488   -1.52505453106274
C          -3.39432949210688   11.46473804883758   -1.84221732534483
C          -4.64171204063601   10.97646292541010   -1.21789850448032
C          -4.37518874014933    9.79586789468126   -0.60604358976701
C          -5.90109798906360   11.58609274727318   -1.27024424746076
N          -6.94832959545838   12.05699199757951   -1.29763948157552
C          -3.25513186452188   12.60844783074688   -2.58719627330809
C          -4.23876885796977   13.61889237262544   -2.82585572872777
C          -3.71478045235015   14.57599857028077   -3.65682537732520
C          -2.34752046821556   14.19054030108094   -3.98050579589666
C          -2.05402818406072   13.03356791413258   -3.33202646303165
C          -0.82963793517654   12.35961572534037   -3.39807967147542
N           0.18519803335067   11.82587977120136   -3.47027720297040
C          -4.39731474945746   15.74916565444564   -4.10170020857067
C          -3.98237092595754   16.54532720061688   -5.10285958751965
C          -4.70253869476529   17.71013711966724   -5.56638250888997
S          -5.15766591109272   17.76292453451891   -7.23874798208918
C          -5.98393385823562   19.26738916799880   -7.03756128679350
C          -5.85716990870418   19.73151559709121   -5.74871506140734
C          -5.14452762749119   18.83376145506307   -4.90392209034114
C          -4.77580517822140   19.18640566308716   -3.49111255545434
F          -4.45435107368157   18.12686897177817   -2.73659271304783
F          -3.70406937759724   19.99649617729546   -3.45139730023889
F          -5.76630487835575   19.80884563153285   -2.84204879233975
C          -6.31858040809290   21.09306841885665   -5.31944569845472
F          -6.60776984868444   21.87936318849963   -6.36911837634636
F          -7.43263803666607   21.05644350703767   -4.56672475553915
F          -5.39454385349880   21.74993122828763   -4.61395532128511
C          -6.60841141509288   19.83775090893679   -8.20870597649872
N          -7.91685835243636   20.22279416947530   -8.32598139489430
C          -8.98283210485010   20.01538858574449   -7.37507177547836
C          -9.25193269160861   18.53281709937303   -7.13556002876572
C          -8.19006137119018   20.71489607703473   -9.62665402402778
O          -9.28976623834894   21.09541688506239   -9.96869611585510
C          -6.92971183401221   20.61705587167943  -10.32079557599403
C          -5.98472359291577   20.04385520979330   -9.41822318480223
C          -4.71396474427506   19.93629562243519  -10.09983998525330
O          -3.63833139033192   19.49999239769360   -9.75102104222268
N          -4.97709884340237   20.45054674894533  -11.38476538731439
C          -3.92199570323973   20.57000051303602  -12.36205884327517
C          -3.37069431457240   21.99210524784415  -12.42772768456462
C          -6.28235611240030   20.86157736295721  -11.52135715296482
C          -6.81205561987483   21.41851121761707  -12.73422099857262
C          -8.07781242966126   21.82595900164294  -12.84807836059925
H           5.81203959438253    2.89076954839181    2.33000196092353
H           4.26846149765150    7.59777631059905    2.92617391046781
H           6.57346821995831    8.35450944189043    2.87296057153496
H           8.98221300523424    7.87005987759561    2.70659984832678
H           9.76777499755346    5.55128998361414    2.43843335668986
H           8.14987690143356    3.69758100371504    2.32386992773993
H           0.48406445145954    2.63767670283306    2.08434382213999
H          -4.75874664170409    1.46908380876508    2.69335659525593
H          -5.92453206129004    2.71138793618137    2.14596075021973
H          -4.53526547034320    2.65999812866878    4.87598402756347
H          -6.21585734724508    2.19876956380771    4.58010474966346
H          -5.70577109624697    3.87413571271558    4.33774867416078
H          -3.96896090518660    7.26902483481426    0.45577367667761
H          -1.20549057687497    8.33807600003835   -0.37764360371355
H          -1.36644210199779   10.56019357484140   -1.82201436729642
H          -5.08178652790274    9.19070794690709   -0.07006617667362
H          -5.22667521584777   13.61947696740545   -2.40959064857832
H          -1.67820536538877   14.74703297577018   -4.60942315526256
H          -5.32390914913575   15.96834834246424   -3.58905707829010
H          -3.11886794463766   16.27662867208517   -5.69620221523391
H          -9.86210849712408   20.48813152379120   -7.82168988947857
H          -8.76396595874673   20.51906484205489   -6.43309092423382
H          -9.48105351400141   18.03399083612354   -8.07444830023904
H         -10.10039590113032   18.42316738122133   -6.46659019840428
H          -8.39131519661879   18.04508042787026   -6.68203588246569
H          -4.28763787437415   20.24628251516575  -13.34028878389874
H          -3.13287224178060   19.88563531562942  -12.03772335075147
H          -4.14673265342800   22.69960813682609  -12.71145741214453
H          -2.56640933727316   22.04210966074946  -13.15633011862162
H          -2.97795987202095   22.28174919377552  -11.45621789391632
H          -6.13569693445935   21.49493273689012  -13.57409732784812
H          -8.76915260615248   21.75886702272981  -12.02461009572978
H          -8.44900610190150   22.23690164838044  -13.77104182824691
