89
 SCF done       -192.863092417661          0.000778551610
C           2.03697524828361    0.28581736989872   -0.94559609516080
C           3.20696375663844    0.07386425783657   -0.27390719145670
C           3.95981410212402   -1.11814623157659   -0.34713418681913
N           4.60786372887211   -2.06416597009362   -0.37290975027719
C           3.82108289128287    1.04905159942666    0.54159726466396
N           4.36751971644355    1.82775630099029    1.18301011654706
C           1.38115233914924   -0.62472553554176   -1.87396198639957
C           0.23538799460961    0.01868847821536   -2.43508282262399
C          -0.56487556994459   -0.60498097802215   -3.35079381937202
C          -0.25482156032972   -1.92229084742509   -3.75323849862485
C           0.88354590124701   -2.57400959112281   -3.19361944230169
C           1.69466126813728   -1.90518869774314   -2.24925360362468
C           1.18037888648112   -3.89055940335069   -3.60117693786896
C           0.39320029739718   -4.53330493762459   -4.51787023158429
C          -0.72611927538712   -3.89075705104188   -5.06847044857571
C          -1.04377497719268   -2.61309807856816   -4.69424629083481
C           0.10190497920301    1.35862210049785   -1.86042371864477
O          -0.73045498737632    2.21320506865544   -2.08167735474252
C           1.22450114708692    1.49172161084267   -0.89164238909080
C           1.29382079951410    2.57242202544376   -0.09014093806414
C           0.28835117596885    3.61673355929661   -0.15923779552165
C          -0.76255108682916    3.68921858384920    0.71519920933879
N          -0.98805838335932    2.74831386789071    1.73347768148232
O          -1.97279779299755    2.87695745770947    2.43057414734219
O          -0.16125510024335    1.85241358784541    1.84877968413707
C          -1.63580897493387    4.78956710429462    0.35706944757561
C          -1.09238042305385    5.41949534664742   -0.70233964467953
C           0.15502369184498    4.76854237459453   -1.06662955015525
C           1.04458079296294    5.12152651438030   -2.04529554957560
C           2.09432311275459    4.28113507814377   -2.56790350203645
C           2.47196708397705    4.75427519777573   -3.77723050832307
C           1.75559149652050    5.97831255960924   -4.04188005749058
N           1.97848846089137    6.73667510276343   -5.20816646301573
O           1.36667350235532    7.78288438447968   -5.35655521746583
O           2.77271120088778    6.29100008143244   -6.01546125133368
C           0.94006390663700    6.28098641539967   -2.96264813240737
C           0.27127527671895    7.51250197842466   -2.75614185106801
C           0.02587429647861    8.08141831909964   -1.54681472256802
C          -0.59913574910921    9.34948945283598   -1.41828217842784
O          -1.00759257339206   10.02511492623716   -2.52415254221238
C          -1.57046653476893   11.18151911852733   -2.14382246451652
C          -1.53119409980648   11.25517399568888   -0.74300015091111
C          -0.90577321865702   10.08226362123971   -0.28644680644597
N          -2.02014310259745   12.29590571368017    0.08722211074716
O          -2.55234379902758   13.24645268769527   -0.44918477708950
O          -1.87198538651183   12.15838868486604    1.28203500983747
C          -2.08076743995184   12.09298861618526   -3.10373828817014
C          -2.00301064124058   11.86663408914805   -4.43774559486367
C          -2.50521094482730   12.74661828408124   -5.43107498735206
S          -3.30778569958523   14.24852854361300   -5.04076425343137
C          -3.54508874777051   14.62276674707274   -6.71332447743264
C          -3.01668370437745   13.61560928806671   -7.52128062375076
C          -2.44577937827202   12.56258187262372   -6.79433073348815
N          -2.97688994735527   13.59980881361491   -8.95418593880783
O          -2.90567492744824   14.65395475465964   -9.54527719662998
O          -2.98223420293023   12.50680681622207   -9.47634912954894
C          -4.27907705704374   15.78577506687841   -7.08564680960750
O          -4.67115174279501   15.97475441926112   -8.35559106941102
C          -5.34246485723968   17.13240169844239   -8.44969928507291
C          -5.41737388619331   17.71625556262219   -7.19629190569532
C          -4.72606776900227   16.85073502865328   -6.30558526808705
C          -4.52717802643132   17.05302658114746   -4.93078624896699
N          -4.36410103061521   17.22900663297838   -3.81075624232808
C          -6.04337955876718   19.00022573849961   -6.77342094146435
F          -6.78025049387263   19.56921213035254   -7.73687552013783
F          -6.85745399443748   18.83459365613393   -5.71980703776837
F          -5.12531825864795   19.91057965607345   -6.40863735825647
C          -5.81900081854642   17.55482731918656   -9.74272826399536
C          -5.44070632777532   16.94153108318613  -10.86278783623414
H          -1.42575302386655   -0.09840221948795   -3.76122553772807
H           2.54667137917956   -2.42518011266594   -1.84041215038207
H           2.04278413120018   -4.38135063565510   -3.17503743521763
H           0.62890140727049   -5.54125994584295   -4.82399550025525
H          -1.33565130190779   -4.41323348088233   -5.79014604338385
H          -1.90460705986020   -2.11373841688398   -5.11383430405857
H           2.04988970349537    2.66574834359352    0.67977397878665
H          -2.55747430049762    5.00248156271223    0.86305169825793
H          -1.52130274302212    6.24035619233369   -1.23976988104443
H           2.45162036099199    3.38928793265937   -2.09529174986935
H           3.19048599318478    4.33460866338156   -4.45569791826712
H           0.05025150659612    8.08689209543944   -3.64663917242986
H           0.33104608996004    7.61025735846493   -0.62435717567096
H          -0.71652952393685    9.82243403183278    0.73451854084596
H          -2.53694383793834   12.99086229395328   -2.71082718416624
H          -1.53098896055170   10.96356608135806   -4.80201583401241
H          -1.99546953816785   11.70918185234607   -7.26929985020378
H          -6.48342991930832   18.40451600619785   -9.75260156698852
H          -4.75164720223479   16.11319305987178  -10.84211696390798
H          -5.79808816488784   17.26528973375365  -11.82377674035951
