108
 SCF done       -214.104193328426          0.000581772348
C           2.91007319957742    5.03908168993979    1.85960768698253
C           2.96359598507490    6.39816059723583    1.67926107755743
C           3.34732267192524    7.31253725856218    2.67863370479023
N           3.61891574084535    8.11834543981414    3.45032795106714
C           2.67011785903237    7.01745189895262    0.45188119893632
N           2.44217664134997    7.55253801674002   -0.53955002856243
C           3.34408147067229    4.30775898803965    3.03503011555819
C           3.59837444500080    2.95275660635989    2.66067231995165
C           4.02971532868563    2.03211365132665    3.57214720751411
C           4.19904373413977    2.42415626845904    4.91968107560101
C           3.90651198181646    3.76660381038169    5.30372253453793
C           3.49018068363204    4.70737446497082    4.33624764490934
C           4.03274951964859    4.13268712623777    6.65905184050692
C           4.44618511902706    3.21983224169328    7.59115101966654
C           4.75276517259139    1.90443875971123    7.21085800068204
C           4.62973621276451    1.51384354338717    5.90432078440382
C           3.26794635775361    2.76957483054389    1.24050286422968
O           3.41828293682261    1.79861120671767    0.53868794569232
C           2.60981641217270    4.05534060250635    0.83796886965667
C           1.76125018910136    4.05879507260230   -0.21609602927400
C           0.73189772595198    4.99255698844621   -0.54228519984375
C          -0.01560335279475    5.78543880315685    0.32649599128165
N           0.03564611044363    5.82582023824006    1.72578359377319
O           0.30894272478666    4.82049665090961    2.35527359535424
O          -0.16788968743850    6.91965241322828    2.24434542405509
C          -0.91115819593821    6.62066090130551   -0.41856769584456
C          -0.68487887112195    6.40755430190789   -1.73629704271286
C           0.36068838908515    5.41912663894312   -1.88290287710723
C           0.94009513777727    5.05641768738453   -3.08929133509248
C           1.48140135879652    3.80518223750924   -3.47991875803205
C           1.64380040731682    3.79510789021450   -4.84048287503429
C           1.30497053331447    5.07596322614765   -5.36491584036420
N           1.42908835437985    5.40413611064047   -6.72369291906017
O           1.12898033693798    6.53386850413567   -7.08441727944526
O           1.82114639307952    4.53105401752890   -7.47748050035876
C           0.92173376210122    5.90870895998605   -4.30815233849730
C           0.75010769057985    7.29600782907547   -4.35795507817049
C           0.81374901007072    8.14889706195072   -3.28308468256917
C           0.52084745630689    9.51712622891757   -3.35782004307600
S           0.19131440357950   10.35993376418656   -4.84197447116057
C          -0.00632547785238   11.85994516413271   -3.99764499664697
C          -0.31896048328589   13.14550927426241   -4.66176004381953
O          -0.45673590032608   14.15482594588730   -4.02726109570848
O          -0.43823152179441   13.12607622207068   -5.99215263405981
C           0.14676923554186   11.71843568048910   -2.64066798202116
C           0.43803046612599   10.39717412688214   -2.26065686800496
O           0.56487340499004    9.89487920200012   -1.02255023200782
C           0.70952016540628   10.68479945549504    0.04752962871778
C           0.72477327782070   10.16649259341781    1.29692940055044
C           0.93643483617851   10.95421601234495    2.45155070460185
S           1.07408004807758   12.67513089930990    2.38128024084287
C           1.47212781126164   12.81755191243990    4.06666483573093
C           1.42684817807352   11.55563017238294    4.68602199216976
C           1.12478479622173   10.49930988910063    3.77211766497766
C           1.06878375404711    9.17202873203889    4.22347232732123
C           1.34815987369652    8.90356565587712    5.54479779084700
C           1.43098070821410    7.56873203171066    5.99949027627435
N           1.55293861253433    6.48752749361646    6.35966976853867
C           1.57625751308156    9.96375025372054    6.47072038554941
C           1.78929829940740    9.65833044261138    7.83507092824277
N           1.96590515784404    9.42262997692925    8.94233242357827
C           1.57349103551392   11.27478693030135    6.05330847827723
C           1.73491129792584   14.09908399244360    4.58820004926615
C           2.57447214459743   14.41592002623102    5.62209752926915
C           2.69519439917456   15.71996847161882    6.24187187040010
C           1.78349618064343   16.74095072265982    6.15117342776490
C           1.92691552725045   17.98655433937868    6.79650942490660
N           1.99362083659236   19.02058303294060    7.29038352038060
C           0.57011198325706   16.66741715098060    5.43609614772399
N          -0.44187054070086   16.65952199603938    4.89303281211155
C           3.89984268499668   15.71586248850384    7.06096875336263
C           4.49303171967739   14.42236563550916    6.98756989209709
C           3.69558090177445   13.56118019806281    6.10059537658696
O           3.94980997130402   12.42435400770554    5.76182466257336
C           5.63473726301211   14.11287087614957    7.66927206563645
C           6.24523083276984   15.10153336462881    8.47336652326713
C           5.66377287293904   16.40081911607758    8.54373634093083
C           4.48197634255320   16.69253415062426    7.82412955644385
C           6.28532789222456   17.38090021156821    9.34339597402472
C           7.42477276147801   17.09240361710397   10.04458945519384
C           7.99456027008497   15.81237328404490    9.97732115118770
C           7.41744571877693   14.83788416077638    9.20850452572780
H           4.22590848058745    1.01291817613963    3.27373209526654
H           3.25757226298397    5.71058961312407    4.65645539545220
H           3.78113647077074    5.14274524829692    6.94439065369466
H           4.53644033642744    3.50608130003351    8.62809365312489
H           5.07954641930684    1.19808806949633    7.95946193675192
H           4.85478860076421    0.49930168761154    5.60926668601969
H           1.83272903784054    3.18210292306167   -0.84838091798357
H          -1.64205937557448    7.26297314739644    0.03353584715061
H          -1.24258765007488    6.81812807461904   -2.55457436863536
H           1.61830457454049    2.95350797322036   -2.84439090573387
H           1.97283483258814    2.97152853795266   -5.44654584950200
H           0.61006123964649    7.71923449037189   -5.34758587741849
H           1.13836771219200    7.80267776122991   -2.31076718958345
H          -0.29890197871624   12.25548059037360   -6.39028940009683
H           0.02440901762130   12.55862796209722   -1.98142339996342
H           0.84149960729905   11.74789023803444   -0.11875189451124
H           0.58779688778991    9.10337720292454    1.43039124702089
H           0.79389277968271    8.37220998064384    3.55518696260206
H           1.67688088176419   12.07015157919544    6.77339221558249
H           1.25357895861700   14.91325755445294    4.05821182204789
H           6.06313632294925   13.12404373651355    7.59996058046611
H           4.06857189576950   17.68630800684092    7.89261344037960
H           5.84163311044923   18.36438106055996    9.39348177920674
H           7.89260596647464   17.84949564715777   10.65574007921204
H           8.89315180668362   15.60198405022860   10.53761719684428
H           7.85166560170221   13.85049395005570    9.15295870735488
