110
 SCF done       -199.318138697747          0.000932611330
C          -1.20946569295718    1.21476242130171   -1.65634568945247
C          -2.23285640387018    1.87112037954950   -2.29108576525913
C          -3.33534842987536    1.22133762219755   -2.88634635943332
N          -4.26074029362792    0.75731950027390   -3.38253758242955
C          -2.34423170370758    3.26755292514172   -2.46146797778119
N          -2.50308524127016    4.38949477384455   -2.65269671472656
C          -1.08762421640330   -0.23237216573862   -1.51983503853571
C           0.12488203349921   -0.52596528799320   -0.83114566665505
C           0.51812876333920   -1.80692761794829   -0.57092951688333
C          -0.30127522711182   -2.87741066416790   -0.99323871835342
C          -1.52033320301151   -2.59375022634216   -1.67434607399721
C          -1.89983390080246   -1.25626165910414   -1.93113962636673
C          -2.33286172848273   -3.66897884235118   -2.08775902979010
C          -1.95888003503854   -4.96271342156833   -1.84459899963180
C          -0.75662239229493   -5.24074612984619   -1.17729057924643
C           0.05428422764404   -4.22018752125624   -0.75981176729857
C           0.80944860352434    0.73061027460320   -0.49451451683952
O           1.86608054246595    0.84943950292379    0.09503652558230
C          -0.05051496573870    1.81224766583624   -1.01316822585300
C           0.17509301429384    3.15159729104975   -0.88449007884647
C           1.25516278089177    3.85541699646078   -0.30776579644618
C           1.25632187155640    5.24670666936171   -0.25210944659102
C           2.50287643040545    5.78213564328755    0.17565142742450
C           2.85828847691097    7.12115836222102    0.35140588251808
C           4.15623785565247    7.41864908001750    0.72497077125682
C           5.09224694732360    6.39651198115202    0.98143086203428
C           4.73091100262556    5.07515359969793    0.86784232293681
C           3.43791766438803    4.76337442851396    0.45520005912451
S           2.77881865039472    3.17477980561890    0.22426443407683
C           4.54376687951801    8.77602037045573    0.81971436898618
N           4.84807172451929    9.88010473607254    0.86400102975160
C           0.17436225831373    6.12094591350256   -0.63651906629244
N          -1.09855490204285    6.10348232870192   -0.12670925530885
C          -1.57713244502210    5.29126915542201    0.96494634698914
C          -0.88018978169752    5.64677454305192    2.27532844384336
C          -1.84744302824916    7.21513742918277   -0.58310789489555
O          -2.98117360862950    7.44951723063373   -0.22414396763932
C          -0.94939676976768    7.90219286029958   -1.48159677134264
C           0.28129579346628    7.18960793788078   -1.50160601978214
C           1.22141774055750    7.92339004378778   -2.32482272751228
O           2.35952003684927    7.69344014764271   -2.67071405275629
N           0.51457719148019    9.08692896528551   -2.68114695886693
C           1.09730001887472   10.09977881359594   -3.52394169946890
C           0.43437741525477   10.14449447755954   -4.89760799282393
C          -0.75952075608852    9.09408278686639   -2.16253578972074
C          -1.59211405475187   10.24296272545046   -2.13167545077402
C          -2.90427721730892   10.21974799181564   -1.79329037795277
C          -3.58871536779521   11.40429165666089   -1.40070697638108
C          -3.00049219757966   12.44900993508242   -0.69752056410718
C          -3.94488039381334   13.48723031852746   -0.39503542673320
C          -3.78970903486764   14.62147043022097    0.39733519221882
C          -4.85821292891679   15.49283628240095    0.55331711848320
C          -6.10153445367593   15.23584087289569   -0.04645282851788
C          -6.28949189493668   14.08250735587590   -0.77358207502448
C          -5.21925932885481   13.21267336745538   -0.93333377205038
S          -5.26832719786355   11.67751899261181   -1.75009783783392
C          -4.68470284441921   16.65863834729313    1.33453604126607
N          -4.53423649255137   17.60214044194606    1.96785834243030
C          -1.65628268848806   12.34375162712880   -0.21130752507981
C          -0.74711669791976   13.34314723826379   -0.08657972025721
C           0.51959238466137   13.27452173219449    0.62678646439650
C           1.15086594667891   12.14677266041578    1.08440002988839
C           2.29683906714000   12.16911166657631    1.91128106815996
N           3.18267331390271   12.13722286128131    2.63927988994759
C           0.77166844799384   10.82169036380079    0.79889805922371
N           0.55979987522306    9.71519024637770    0.56758894897410
C           1.01633894567204   14.63952335611976    0.75095959878926
C           0.17890792317562   15.50519767553518   -0.01304528969919
C          -0.89936886429968   14.71862014256554   -0.63442035326161
O          -1.70467995328237   15.08753409426651   -1.46265612747654
C           0.41046880572010   16.84793536772369   -0.09250645233222
C           1.50544619105700   17.40065719887352    0.60888588014351
C           2.35149034136772   16.54173217377474    1.36881578356882
C           2.09239977018788   15.15359865525786    1.42623863866623
C           3.44452624894435   17.10293606769879    2.06021592866368
C           3.68918786788994   18.44815686346066    2.00757811399285
C           2.85321771670987   19.29321708649946    1.26240113123507
C           1.78474525443501   18.78071634890832    0.57743224695805
H           1.44440952433314   -2.00065516101917   -0.05063010905067
H          -2.82760501969479   -1.07727383707662   -2.45056436114256
H          -3.25706053414234   -3.44988156920172   -2.60208973840836
H          -2.58764502741571   -5.77940035895309   -2.16601141944475
H          -0.47616585332264   -6.26742209221997   -0.99551246287962
H           0.98091683471393   -4.42808701932448   -0.24507421171478
H          -0.56873167276993    3.81174405068591   -1.31351109576565
H           2.13851893784372    7.90990769835325    0.19610443788676
H           6.09510968338440    6.66652501071726    1.27642962468937
H           5.43490087676244    4.28607150277193    1.08098637991748
H          -1.43935412366868    4.22957342985096    0.73976382293507
H          -2.64816462005491    5.49993855167458    1.03875107442024
H           0.18214276467292    5.41691489291097    2.22341231288107
H          -1.31890156106322    5.08025350342245    3.09197455867068
H          -0.99442140043607    6.70792637730711    2.48339264993955
H           2.15333558712078    9.83300386680442   -3.62363821581328
H           1.02964944012876   11.07660464785372   -3.03236781203095
H           0.52795499260862    9.17854163155675   -5.38771590920807
H           0.91683963810587   10.89657132540168   -5.51558131545661
H          -0.62230880481441   10.38838419115002   -4.80995989426196
H          -1.11790798476000   11.19465053995881   -2.33626193945959
H          -3.44554526987645    9.28449797830014   -1.75995148785649
H          -2.85696570554739   14.82524895067380    0.89987601757386
H          -6.90947919425145   15.93865894414789    0.08783165671781
H          -7.24864795330069   13.84887866601325   -1.20804396444983
H          -1.37103976691294   11.34516802375258    0.10393981019439
H          -0.23916264577399   17.48240129982950   -0.67706908885679
H           2.74996430005956   14.53017292140604    2.01078196617309
H           4.08445942538488   16.44768193575160    2.63263427552917
H           4.52829203023468   18.86891768130283    2.54100392012048
H           3.05985598132276   20.35257282365600    1.23372107865102
H           1.13748743470256   19.42656432092221    0.00246463193344
