117
 SCF done       -223.584304489715          0.000868376503
C          -2.90125024540531    0.99722019779849   -0.44159576878762
C          -3.31481117822983    1.46116850217344    0.77800817343186
C          -4.48315083390978    1.01447765382252    1.43158307758334
N          -5.42513421287151    0.69559119071354    2.00370029081255
C          -2.59483057850453    2.37844684668799    1.56884808945762
N          -2.04001398520021    3.10709944788034    2.26153584433876
C          -3.49584362160512   -0.11932101968347   -1.16635395415006
C          -2.55056683108557   -0.60352080559162   -2.11900279888062
C          -2.81922541605913   -1.68219837990399   -2.91216598040622
C          -4.06834572282719   -2.33125043654036   -2.79382132845208
C          -5.02545662583212   -1.83952526080366   -1.85884475829852
C          -4.71916980762791   -0.72361771892423   -1.04728557035492
C          -6.27151531240765   -2.49116606040931   -1.75667005196120
C          -6.55821285468711   -3.57918443427138   -2.53526325187538
C          -5.61434446830767   -4.06423616591826   -3.45315973632935
C          -4.39618313386922   -3.45355944710595   -3.57987355132005
C          -1.34340688038728    0.23596727463284   -2.08025534066168
O          -0.32308498838019    0.12030098237301   -2.71679046887681
C          -1.66627938523724    1.33874091709606   -1.12308710147094
C          -0.86679290471446    2.42663265851236   -1.07091975686201
C          -1.15383282518564    3.71097376458547   -0.51164483874866
S          -2.70416963369512    4.46488353421175   -0.68583778858800
C          -2.18558499923213    5.87113936410914    0.19516575952794
C          -0.85274535537456    5.76168634232369    0.55940380045667
C          -0.27437652015644    4.54202513065990    0.15937273121563
C           1.10630554142808    4.11087418280364    0.54723276657259
N           0.91890807008396    2.94975757974557    1.50561857368612
O           0.60809518285508    1.90257922785014    0.99699811079617
O           1.07577386320601    3.14741949768753    2.67667859749251
C           1.91856181207533    5.21961922295553    1.20795580422004
C           1.46244309468472    6.60091603067554    0.76000430392964
C           0.00117965154627    6.83067007308424    1.16999117038008
N          -0.35423602378612    8.17826582964919    0.65090712102562
O          -0.52107105867202    8.28970702958635   -0.53513327677881
O          -0.39910590681797    9.07660911584137    1.45699800492623
C          -3.14987858509335    6.89466824111516    0.41673365530739
C          -3.12551587256239    7.79544051809924    1.43026715813970
C          -4.09102713650862    8.82727271019584    1.54845250524508
N          -4.03723737582360    9.80560989157400    2.50622320507879
C          -3.03815678267775    9.95011494362583    3.53889512514969
C          -3.28714923423873    9.00073337625452    4.70845903328487
C          -5.09002143908138   10.72993362031636    2.37243812964262
O          -5.23892393763964   11.68692803111493    3.10210529192092
C          -5.84188160210267   10.25284121759008    1.22797880823614
C          -5.20585346118715    9.08755990321755    0.74725228354608
C          -5.95685738455715    8.60563486072100   -0.39440359090556
O          -5.79806704657727    7.64100595625448   -1.11720622807867
N          -7.00768511634652    9.52133646190237   -0.52896950779208
C          -7.95910798681497    9.42026966537737   -1.61146984392596
C          -7.61762939830674   10.37246357316973   -2.75417272445237
C          -6.95427727257203   10.51614907882676    0.42159039098957
C          -7.89438426416941   11.56487954799312    0.49577782882731
C          -7.81545269799445   12.56434467500365    1.42326251230607
C          -8.70871606910601   13.64875708556688    1.53822053371823
S          -8.33483120748229   14.83367319913784    2.77637246433022
C          -9.75568958108345   15.88608420595774    2.36447202732741
O         -10.00653925034435   16.89039060672192    2.97013296929644
C         -10.43323701614940   15.24203316363265    1.26117710103878
C          -9.86798402268147   14.00435431152361    0.84498219610510
C         -10.62718485118713   13.34895087820281   -0.18727272076847
O         -10.45585225764255   12.32391354268901   -0.79472439877693
S         -12.10010372287550   14.38051695761058   -0.51404892353131
C         -11.59831419489350   15.60651314016435    0.61826575107797
C         -12.41406657867474   16.75469318028232    0.83979237891615
C         -11.93721226528638   18.00434028515505    1.06100342746320
C         -12.68243379374671   19.17352993998989    1.49548531001658
C         -14.00056344037897   19.20561907050445    1.86708367456764
C         -14.67095834966557   20.36608987049744    2.30983987902821
N         -15.27895455047217   21.27105401793683    2.66875582939904
C         -14.87428492697341   18.09772137376865    1.86499646726240
N         -15.64207257551357   17.24464321796028    1.89621262902595
C         -11.75687418847193   20.29781304205961    1.53826406230617
C         -10.46897617081240   19.85214338621378    1.12227857280612
C         -10.52935323696102   18.42912787839866    0.76743748429370
O          -9.66508255473395   17.76822646623105    0.23908653520492
C          -9.39407724247881   20.69332461516029    1.07442719952924
C          -9.55902867896832   22.04396059264879    1.45217280994896
C         -10.84541444664855   22.50025264852619    1.86319472397449
C         -11.94018293578269   21.60732415660267    1.89964239743494
C         -11.00052846116398   23.85272676030798    2.23055511998872
C          -9.93759463698157   24.71361418644037    2.19627231318771
C          -8.67123515466063   24.26283826178100    1.79359248828198
C          -8.48583229734060   22.95661210281991    1.43008518406769
H          -2.08566756550054   -2.03808622438203   -3.62020136061339
H          -5.46575493688087   -0.36628940644355   -0.35538984429026
H          -6.99341960963661   -2.11646312345553   -1.04610116256485
H          -7.51409998110408   -4.07328727624009   -2.44747487290501
H          -5.85750481817227   -4.92388937442590   -4.05938173315447
H          -3.66575205726827   -3.82230554698137   -4.28498206658397
H           0.08298685112816    2.32421244743806   -1.58936974456621
H           1.61343983231839    3.67518790731285   -0.32031904160685
H           2.97637018965257    5.09237024750258    0.97700344004662
H           1.79779093721341    5.13719003930082    2.29119490343691
H           1.53878972272035    6.69239980011151   -0.32656718263077
H           2.09723374641546    7.36079951668403    1.21866663276582
H          -0.08720761642261    6.86449736140734    2.26164982100992
H          -3.98582196299350    6.90724726433018   -0.27257965740686
H          -2.36544716218154    7.75039129260704    2.19441944994889
H          -3.11366365950073   10.98355380233974    3.88758770483117
H          -2.04525882270574    9.79882526514574    3.10580159403928
H          -4.25558378125575    9.20913672303856    5.15669346375692
H          -2.51884960093905    9.14191242730333    5.46329260076665
H          -3.27487440687705    7.96172623859372    4.38642443696989
H          -8.96561097857992    9.61818137281523   -1.23571187346204
H          -7.90619187958160    8.38664370774546   -1.96415328692625
H          -7.64902848129268   11.40655687237881   -2.41984717186647
H          -8.33622276184962   10.24746396110313   -3.55880682277498
H          -6.62253470107119   10.15761238912867   -3.13672638874668
H          -8.70196515927983   11.56223926058238   -0.21944530451727
H          -6.99940091715852   12.56067194129290    2.13565183282687
H         -13.48178028320452   16.57608624656009    0.80794231086485
H          -8.42836590996649   20.32880299353602    0.75744570217666
H         -12.90065769943263   21.98502079806173    2.21243610353375
H         -11.97677552023994   24.19484674890905    2.54122333106883
H         -10.06633264467124   25.74736938878631    2.47997349698146
H          -7.84376424776785   24.95614547896054    1.77280782626609
H          -7.51346476596295   22.60375917364437    1.11923644747640
