102
 SCF done       -192.091466805428          0.000496841191
C           0.44513187041482    1.71599370282259    2.19094076310561
C          -0.81707432319871    1.75020982952357    1.66563988065345
C          -1.88463078022482    0.95837672504359    2.14123273585802
N          -2.78588628244421    0.33963757277059    2.48914858834387
C          -1.18922108211931    2.52414189789401    0.54911461988178
N          -1.53583719864374    3.11881273524199   -0.37002779729556
C           0.91334567317752    0.79482321611747    3.21766324570340
C           2.33846031687595    0.74644636574346    3.17652772794900
C           3.05419266758702   -0.05458738620681    4.01992113998339
C           2.36670730306967   -0.84819681073567    4.96494551334826
C           0.94318682642535   -0.79354680138145    5.02079117881692
C           0.22742478844576    0.03940589462061    4.13119780728820
C           0.27069295749044   -1.58367057604869    5.97547887657997
C           0.96795625472410   -2.39001328905890    6.83323028242001
C           2.36898723741744   -2.44324580769800    6.77729219063108
C           3.05327160732709   -1.68968640288557    5.86264229873520
C           2.82851770882199    1.67819401965453    2.14981867503010
O           3.96133922537681    1.86009539377610    1.77304602959255
C           1.61168606176666    2.42422195319735    1.68927618249224
C           1.77454916487169    3.59425179063872    1.03839432022932
C           0.81383618118750    4.64052753724864    0.77325912405743
C           0.92330220570651    5.40293196871317   -0.39136049175331
C           0.00304759880683    6.38663240367236   -0.67437551996468
F           0.18145937625659    7.10671735701293   -1.79681614634829
C          -1.05380721076604    6.69421109012262    0.18788143232543
C          -1.10713189286682    6.00089303239890    1.39847042915445
C          -0.20566872184229    4.99722064522393    1.66565792845901
F          -0.30281981483813    4.35584727796837    2.84519492936117
C          -2.03316994963282    7.73896113622748   -0.05271189204093
N          -2.69910677922103    7.98162245081399   -1.22289124569607
C          -2.76561763336051    7.13505037617442   -2.39340465113806
C          -3.31265645513751    5.74859559713597   -2.06770270391063
C          -3.56127687198180    9.09610033933331   -1.09846340768556
O          -4.26279899390404    9.50000445837204   -2.00528046333287
C          -3.37583789584060    9.55040558734049    0.25763158423052
C          -2.44081915533523    8.67325346199736    0.87894414076407
C          -2.23782607722567    9.12147464855875    2.23932536449423
O          -1.55562597512814    8.69587465521949    3.14706500922834
N          -3.08212440230824   10.24248582586119    2.35655669888670
C          -3.13056778456842   11.01123459419834    3.57654617280314
C          -2.29747328181395   12.28688880569191    3.47722021565199
C          -3.75616678685344   10.51003818069160    1.18703277795263
C          -4.67696195693871   11.58797056059609    1.05104821847249
C          -5.27393478974238   11.88308397415005   -0.12448689538373
C          -6.19815488330153   12.96549137046134   -0.35690993171890
C          -6.41942662413288   13.38660469438447   -1.67538083105164
C          -7.23706002651169   14.45692751410223   -1.95081381521600
F          -7.43369616645926   14.80299211173691   -3.23302439789668
C          -7.92261740827771   15.14998462052592   -0.94531719822600
C          -7.77671078812647   14.68221056690607    0.35997106440027
C          -6.91928686226703   13.64150127803064    0.63870864105558
F          -6.81510417685878   13.26440882006092    1.92989569565299
C          -8.78312925297789   16.28313140544482   -1.23149823095303
C          -8.41643562901994   17.33521307910467   -1.99323674504453
C          -9.23870637238853   18.46490423892155   -2.41061311574396
C         -10.59352418320048   18.58042935204142   -2.26110143595154
C         -11.34950892880382   19.68415329731054   -2.71263473367510
N         -12.01846860774594   20.55285973978110   -3.05134732045753
C         -11.42743819599450   17.62312822719659   -1.64425523663497
N         -12.16598329786728   16.89218884338063   -1.15618699596150
C          -8.36554380474544   19.42843186889387   -3.06583324375716
C          -7.03677114962152   18.91424390035947   -3.07926045175329
C          -7.00430480026852   17.60320682347030   -2.41411077421657
O          -6.02926769598432   16.92981020940185   -2.17198363537475
C          -5.99859677894730   19.61073067227851   -3.62901171211219
C          -6.24565918133576   20.87641641521790   -4.20468072763860
C          -7.57117406198629   21.40080635717461   -4.19195226335751
C          -8.62531927560467   20.65820320813324   -3.61433941658654
C          -7.80510564314164   22.66957616576459   -4.76157260935038
C          -6.78103197870467   23.38656566683019   -5.31768506677522
C          -5.47685615178180   22.86852988895516   -5.33087853257926
C          -5.21497112329085   21.64021863032579   -4.78738661489335
H           4.13264954016191   -0.07921841560275    3.96984439280462
H          -0.84832398239387    0.07381997067914    4.20416745999020
H          -0.80783638751626   -1.54094717823969    6.01333789816914
H           0.44371592285796   -2.99170995909291    7.56042641514899
H           2.90309558870733   -3.08368724141804    7.46308911092931
H           4.13178545588402   -1.72619462657710    5.81522602037180
H           2.78800171115199    3.79757440191008    0.70493477332842
H           1.71684030372348    5.20620198326083   -1.09515567402451
H          -1.86223773105233    6.24250804356544    2.12841106309611
H          -1.78633270321453    7.06064189384924   -2.86851577389188
H          -3.44153232084332    7.65310067201685   -3.08043797408687
H          -2.64195248834594    5.19431584541743   -1.41519351146085
H          -3.43352975322587    5.18491242868303   -2.98837444379823
H          -4.28315781830532    5.83018267670218   -1.58282817251362
H          -2.71734853512615   10.36381862751684    4.35525893776381
H          -4.16980628282317   11.24291308328047    3.82545500781119
H          -1.26155293046553   12.03716052691444    3.26084479083320
H          -2.33558857896532   12.82481305739646    4.42034880907749
H          -2.66916505434370   12.93677033635453    2.68807402582532
H          -4.86925178644849   12.17568273903992    1.93446525197346
H          -5.02546045202743   11.29355971136055   -0.99743276631919
H          -5.92096360504480   12.88053924374349   -2.48730934947372
H          -8.30522695129455   15.16052051696071    1.17019593838537
H          -9.76083309265373   16.25679254359541   -0.76781894776323
H          -5.00081961776199   19.19757350497217   -3.62493355204663
H          -9.61549469314493   21.08560244192797   -3.61524562482194
H          -8.81078902718464   23.06358370145547   -4.75001362884266
H          -6.96997445171771   24.35739908691065   -5.75082875833269
H          -4.68090049745209   23.44845423110973   -5.77368061162236
H          -4.21312966140774   21.23628719826761   -4.79435633858553
