118
 SCF done       -231.669545821367          0.000838494616
C          -0.08627758564957    6.72891337043578    2.76296474701839
C           1.00213750136747    6.66462755918474    1.92008435140050
C           1.69583613065860    7.80710055520385    1.48384115019384
N           2.20512911311571    8.73691578830818    1.04249280319178
C           1.67840272810989    5.44019248621136    1.72676660202209
N           2.34158775847066    4.50419530718109    1.75123618374349
C          -0.34238032665960    7.80005437137339    3.71897007248909
C          -0.99430359367471    7.21742182115277    4.84860172867436
C          -1.28322907448238    7.95416184798708    5.96047263284175
C          -0.94623336162979    9.32728722592076    5.98513672490805
C          -0.30620620834625    9.91430748905011    4.85454653575482
C          -0.00167776310739    9.12377687684307    3.72146705551214
C           0.02517223719625   11.28314152117318    4.89684651375043
C          -0.26001448662016   12.03875059700065    6.00217705993646
C          -0.88978528656761   11.46075477831838    7.11387599848114
C          -1.22456975351629   10.13322954641591    7.10618753047311
C          -1.27197763559629    5.79099119681215    4.58522965058203
O          -1.71287766159538    4.95743071982890    5.32883147692033
C          -0.95312794764494    5.63469238545940    3.11873899538128
C          -1.84128581321638    4.90026687411208    2.38491252759437
C          -2.35001525528431    5.24308058204512    1.10318608992358
C          -3.71905720796029    5.25493459129119    0.81371103860952
N          -4.76758869041008    4.59861032832862    1.49176645041898
O          -5.90311732272901    4.90846311698825    1.17946372708680
O          -4.48951694676813    3.75909040428036    2.32890735528847
C          -3.96494545766886    6.15391456749319   -0.26920650621509
C          -2.78197639839203    6.70288483137457   -0.66927222538694
C          -1.72799311934353    6.08533603357802    0.07341293698073
C          -0.42185532639765    5.97762191789792   -0.37028765449746
C           0.31224023056628    4.75042279234725   -0.36115786868955
C           1.33992891274918    4.86474136289594   -1.24544515956057
C           1.35574623070899    6.19505758562691   -1.78926404107677
N           2.43952837077085    6.62215051399495   -2.59075399308707
O           2.53654016029866    7.80161778214122   -2.87523102252074
O           3.23612647178004    5.76816643157148   -2.93159433462709
C           0.27622626740404    6.91344546012750   -1.27855932146579
C          -0.16531324549000    8.24708035198940   -1.42035434285709
C           0.05650674077419    9.05563862491017   -2.49934872640229
C          -0.44460621604255   10.35026940496390   -2.73911614990978
N          -1.02463837426130   11.26822779279465   -1.89620842407464
C          -1.12114830160989   11.24853795762535   -0.45392529128491
C           0.24536699462632   11.34588431397425    0.21467129553487
C          -1.41341719919552   12.43688679556301   -2.58616980361055
O          -1.92760935390257   13.39119527904624   -2.04818556553988
C          -1.06328990729138   12.18055420446157   -3.97018801035999
C          -0.46345062909768   10.91466433945561   -4.02588064450120
C          -0.15093434433276   10.61506127922727   -5.41180506918158
O           0.32494593851839    9.64496423340659   -5.94947439565651
N          -0.58186175582881   11.76806646442230   -6.11046507568451
C          -0.38429501638933   11.89205525492024   -7.53551202234706
C           0.79509025837947   12.80229630520800   -7.86691517299720
C          -1.13291625956648   12.70063421695315   -5.27301689044982
C          -1.70247098239832   13.91361868339665   -5.71638090953609
C          -2.24032649230868   14.84267594643493   -4.87355084716629
C          -2.85258085321581   16.01423143621417   -5.38764685994574
O          -2.91919115732514   16.13261449105672   -6.72259579886633
C          -3.53939329212138   17.30055428402723   -7.04880908444025
C          -3.87057921602463   17.96851275539982   -5.88722785641449
C          -3.44435839328279   17.15937056432434   -4.80925521617975
C          -3.65790253252873   17.60199636643095   -3.44152151634659
O          -4.08944753749815   18.68804271860250   -3.14931296860569
C          -3.32671383213257   16.60288257960067   -2.29574148660786
F          -2.01160338608921   16.34448382774921   -2.23459610024583
F          -3.68705106260597   17.09212042066641   -1.11215192324013
F          -3.97406386509465   15.43928331922918   -2.45881936941878
C          -3.67271865826264   17.51470667024789   -8.44552054975218
C          -4.27516175682043   18.51157225940845   -9.14516252941652
C          -4.33086915309352   18.57793029891146  -10.60206713939908
C          -3.71963771098034   17.73262340642162  -11.49099235267615
C          -3.81221200856789   17.86132805728222  -12.89477054228065
N          -3.84110763110577   17.90142256788818  -14.04120041680616
C          -2.90784774622809   16.62348222790353  -11.17077656825613
N          -2.23704539164038   15.70600589741801  -11.00235541920075
C          -5.14749955442745   19.72881796205525  -10.96275058966697
C          -5.56296494489249   20.38689375419933   -9.76979529177344
C          -5.02778000839571   19.67763204498374   -8.59943891805535
O          -5.18096646804120   19.98208714726538   -7.43766509641012
C          -6.34628726608222   21.50542279928083   -9.79492255524427
C          -6.76047642566310   22.02814734296255  -11.03966206150890
C          -6.35118401762396   21.37550486916976  -12.23923889877736
C          -5.53974368142924   20.22002717997963  -12.18138808464042
C          -6.77142663825042   21.90399379297085  -13.47704817191314
C          -7.55787445999956   23.02263385709213  -13.52907984157538
C          -7.96018019778417   23.66389547500577  -12.34764839548462
C          -7.56982205111692   23.17760162855980  -11.12919591284580
H          -1.76092173250455    7.49632043180901    6.81356106876023
H           0.48871244654477    9.58386457022113    2.87726510394198
H           0.51676958271089   11.72462344029181    4.04232825621794
H          -0.00041175365965   13.08622397210632    6.02467748050512
H          -1.10795766718802   12.07126450305032    7.97687484967065
H          -1.70817867447341    9.68230681234424    7.95995349664102
H          -2.44808004514556    4.20225632828553    2.95422108831312
H          -4.93986471110239    6.33327657183296   -0.68139217525814
H          -2.63699068748876    7.34587695051997   -1.51594066166594
H           0.01293527417077    3.86827432361575    0.17096221011861
H           2.05459539023011    4.10996302106765   -1.51353238314472
H          -0.81042384312785    8.58828308055287   -0.62295032300077
H           0.62016970076950    8.66707673883326   -3.33645442992228
H          -1.66761462986642   10.36166721598488   -0.12228562643835
H          -1.71835330793856   12.12921549319213   -0.19616222284954
H           0.86988721861850   10.48471476749400   -0.01079999317355
H           0.11288715567820   11.41197492024769    1.29108473289422
H           0.75870965683389   12.24297532202829   -0.12235615699529
H          -1.30158179247546   12.25794404826513   -8.00450047890487
H          -0.18183003392219   10.88103752434842   -7.89936912281599
H           0.64003715143824   13.80420194401842   -7.47291537618989
H           0.91344208393534   12.86640250377722   -8.94456266244021
H           1.70958636449439   12.39873154401498   -7.43950902353339
H          -1.72185748945513   14.09807892913131   -6.78103898049341
H          -2.20742717438532   14.67515111885901   -3.81015043085144
H          -4.36488424134627   18.91521675968972   -5.80436717489656
H          -3.21229671363402   16.71331890552696   -9.01023796276144
H          -6.64555728373280   21.98368300235805   -8.87419937760298
H          -5.25126604971369   19.75038072955926  -13.10800643080676
H          -6.45905659410674   21.40731129605266  -14.38379815989227
H          -7.87457615054324   23.41985493467250  -14.48159944931464
H          -8.58102653581020   24.54502512709461  -12.40787924860092
H          -7.87630575969166   23.66687909663433  -10.21645268599883
