98
 SCF done       -194.103373781310          0.002876299045
C          -1.76309890440112    7.67450674289909   -0.17664625718802
C          -2.61000649879824    6.76201768266548   -0.73397417116813
C          -2.40380889706233    6.18084318347784   -2.00137421495335
N          -2.24113949805883    5.67284544109268   -3.01738765389783
C          -3.81078166438072    6.38607840304973   -0.09113219996426
N          -4.81499058101413    6.14556823606771    0.40665525580882
C          -0.67807801890116    8.38191084422123   -0.83964471136680
C          -0.47577353530691    9.62260561148253   -0.16334522571965
C           0.44219171769925   10.53350344234298   -0.60335892232544
C           1.23297311822498   10.22382943688271   -1.73149098477843
C           1.05823419142575    8.97097985595720   -2.39055202948368
C           0.08065901719969    8.05875233771788   -1.93195337238963
C           1.87712812971362    8.66409813281454   -3.49559635137163
C           2.82635249571465    9.54895127402396   -3.92926698007555
C           2.99709820953734   10.78188143964923   -3.28212292691370
C           2.21512072918278   11.11423489133591   -2.20930740913520
C          -1.34956655395466    9.69393365992945    1.01685274006045
O          -1.48693371059432   10.59910410655422    1.80202195916984
C          -1.97100080455165    8.32674880235185    1.10921500899918
C          -2.37849218658835    7.87056296143727    2.30003623860075
C          -2.59539146954402    6.45301702784250    2.76149892895451
C          -2.17960082296825    6.41008760781488    4.20267264102395
N          -2.97702690625331    6.57104224871004    5.23133844110128
S          -2.10288029993651    6.51658349997918    6.59852527662960
N          -0.65922189466213    6.27541893784364    5.88870848303664
C          -0.82210040099681    6.24152462811060    4.58671047429148
C           0.27427631120705    6.03002807624680    3.59556217765456
C          -0.33276729764000    5.32174659964748    2.42482501334032
C          -1.68762029520793    5.50023484025559    2.04337665398038
N          -2.01000881128604    4.76208811584893    1.00538952658318
S          -0.71757831005253    3.91939029226789    0.50870366082928
N           0.30921644556990    4.48579619764941    1.63888324952373
C           0.83258118876895    7.33442382679883    3.10025269419800
S           0.54037916618834    8.86384823590607    3.86844167556691
C           1.52423258472008    9.75291134182543    2.73121621434062
C           2.04353788502830    8.88265334467175    1.78525691949310
C           1.63393366339622    7.52391381836767    2.00729521899064
N           2.16792766064995    6.74192775814115    1.02769441887343
C           2.91711516862333    7.55745549229290    0.20159382785280
C           3.56229073626609    7.07010241575491   -0.94210713679141
N           4.06714439550392    6.69453073514252   -1.90224432968704
C           2.86747553619296    8.86443006431293    0.63136814728479
C           1.69518675740226   11.15482705402795    2.93015632937699
C           2.46778668217028   11.95449726857167    2.18669862465993
C           2.71356288823048   13.41234148947142    2.48661802085449
C           4.19353537804670   13.61858869728937    2.63621133500896
N           5.00656289388761   13.97412215740865    1.66978579774816
S           6.51564504374454   14.09273340396499    2.26420571193850
N           6.14975354018609   13.68729205626118    3.79424300509360
C           4.86355709513769   13.44849163096650    3.87848501714585
C           4.14285064841009   12.99810000342872    5.10931994285323
C           2.76982170598700   13.60893835677697    5.03009467996058
C           2.10746221641856   13.81858721301688    3.78941535660550
N           0.93788183426873   14.39392019186159    3.93483928734762
S           0.66664383894558   14.65110041384807    5.51823281498789
N           2.06579260229996   14.02770045558910    6.05357598262984
C           4.00184712889841   11.50370973334793    5.05920625399127
C           3.54077205116376   10.73269693565374    6.05370264224931
C           3.23229287002011    9.30533004741597    5.97275085893821
C           3.66610458393085    8.43382530642972    5.01383071055906
C           3.36325326792458    7.05628354567124    4.99920150676121
N           3.16459861628250    5.92778721494963    4.91781844100299
C           4.47548496047475    8.77365913750140    3.90828302943852
N           5.12025808827113    8.96634850098983    2.97764549853362
C           2.40076267537354    8.97992559556012    7.11881767913823
C           2.34101150041440   10.11194146629712    7.98412569166718
C           3.13057981235860   11.21600977549852    7.41035539335933
O           3.41793949991154   12.26799219274543    7.92578012149926
C           1.61562161807608   10.09468555719807    9.14050791761461
C           0.89265762312568    8.92985083745400    9.48283722422017
C           0.94079004985799    7.79824505635081    8.61748771067463
C           1.70646167284872    7.83925694603841    7.43199112797021
C           0.21012393026082    6.64343139005241    8.96601920436606
C          -0.54004505118536    6.61042466868166   10.11017338263279
C          -0.58754054796379    7.72499247992527   10.96151565706408
C           0.11508944940442    8.85889918589752   10.65588883562815
H           0.57087960048824   11.47213451437075   -0.08502945703433
H          -0.03721329164719    7.11680376107704   -2.44599881923121
H           1.74477578409743    7.71399264252317   -3.99005037138637
H           3.45211960799863    9.30144047489187   -4.77283199049392
H           3.75096519790193   11.46796827437445   -3.63781088185006
H           2.34116864033230   12.06272545069761   -1.70759680189157
H          -2.44945993948840    8.61454697290881    3.08695384672168
H          -3.64642458024526    6.16920825460080    2.63800606931174
H           1.08610726007150    5.43511855460844    4.03549845309419
H           2.08831080160885    5.73898130335434    0.96936543612847
H           3.37429520339726    9.68326464288017    0.16464422204426
H           1.14318890010512   11.56077714227267    3.76772276240959
H           3.01561621429271   11.56905390600727    1.34094886179266
H           2.32846106656760   14.02729120535727    1.66651744651426
H           4.63777801833181   13.30954460972742    6.03194056014036
H           4.22927900890618   11.05404071049466    4.10175364333908
H           1.58592079407687   10.96392892562651    9.78053663695082
H           1.70305518761132    6.97381180345913    6.78970546940823
H           0.25859947594415    5.78973551555900    8.30732595905046
H          -1.09758597075325    5.72336961317921   10.36951400836788
H          -1.18296001195315    7.68047945583551   11.86140703433537
H           0.08297512123662    9.71920470983554   11.30887714738022
