118
 SCF done       -214.254760307776          0.000577193402
C          -0.89232002815908    1.63750261990745   -2.47008014762217
C          -0.66979423766956    2.87340564830668   -3.01956802570059
C          -1.22087376012388    3.29548380806364   -4.24545726664349
N          -1.66451243970719    3.67924251875764   -5.23169991945359
C           0.22128898278776    3.79649715138926   -2.43726194375935
N           0.99100952487409    4.51706161799537   -1.98216204312657
C          -1.53274777195493    0.50533795840014   -3.12304035736390
C          -1.10328375385124   -0.69075099918900   -2.47404141798372
C          -1.51325519762887   -1.92117536393805   -2.90002328300307
C          -2.39291445201572   -2.01135550042406   -4.00249576342958
C          -2.83634253815386   -0.81857407929997   -4.64496140710771
C          -2.38900345517117    0.44251706139857   -4.18910352493279
C          -3.71928696529895   -0.92455157913532   -5.73876530249008
C          -4.14267282472895   -2.14837018692864   -6.18070472458882
C          -3.70431774905059   -3.32186231768956   -5.54907900934115
C          -2.84783979417708   -3.25481753611089   -4.48374413850076
C          -0.21700619188910   -0.35026969918240   -1.34537599190753
O           0.38427759666543   -1.09590959528654   -0.61124938341745
C          -0.27463977127896    1.14034261562416   -1.25532947779952
C           0.09978145456755    1.78967781421215   -0.12730097978950
C          -0.30780397834888    3.10376217609922    0.25764412226889
S          -1.91779931770402    3.65745688081098   -0.09611467749322
C          -1.64527080241194    5.17179356017818    0.70148838340051
C          -0.34290609397722    5.25491219118588    1.16195551157775
C           0.39799769935461    4.07671159016067    0.93933401175940
C           1.84377583072378    3.92318186843119    1.29838248282769
N           2.03720378108485    2.72763123239855    2.16964563388459
O           2.98371386013239    2.02260286346424    1.93375383288955
O           1.25264595935506    2.58140523651821    3.07401638364485
C           2.36846378355578    5.12622183310866    2.08961791783817
C           1.81979954860274    6.41557594305219    1.49633877955172
C           0.30601621628706    6.47471418542654    1.74077840654498
N          -0.16111321710972    7.72879990293177    1.08996178793989
O          -0.23863743924149    8.69972965242314    1.80596499920504
O          -0.36770434771138    7.71206665915811   -0.09298069138255
C          -2.73987776532102    6.09144661119997    0.77793176905988
C          -2.89848046681162    7.01734669263470    1.74098288717857
C          -3.95683778280452    7.99846011872079    1.81894259929851
C          -4.06493103167724    8.76841784631834    3.00701478387111
O          -3.24552114354178    8.34846939475156    4.00294372777923
C          -2.71124869485070    9.20997124787001    4.98867609316672
C          -1.86169351908726   10.32417613490365    4.38830371318607
C          -5.05812245512522    9.76185525214157    3.09962301503617
C          -5.91714442771266    9.94779362245102    2.00881794266726
C          -5.80018148317405    9.21102575686901    0.85009517251092
C          -4.82207493668034    8.24143376906735    0.75543243836819
C          -5.29603322848350   10.60889939974821    4.26056530483223
C          -6.53419211219872   10.83296062284543    4.74811305334182
C          -6.83622698035858   11.68209563911567    5.85057626733575
C          -8.09607175503587   11.96940729791643    6.31958165265639
C          -8.00106600739930   12.85286011064108    7.43194370140633
C          -6.55408769032110   13.08417495963110    7.64118887207751
C          -5.87675559138106   12.39206249764774    6.69170458492568
C          -5.95756981345329   13.86372550631602    8.63800686363376
N          -5.42704341829157   14.48388585610810    9.44661428182005
C          -9.02783828470887   13.40190591922459    8.16044171450064
C          -8.92668991905500   14.27498507257770    9.28933011627909
C         -10.19013414699606   14.56026366191774    9.75508610847662
C         -11.15011379097682   13.91125022861923    8.87236254427597
C         -10.46718993986118   13.21626551598193    7.92431352277500
C         -11.05951099221281   12.49092741934190    6.88441072418310
N         -11.57052339677445   11.90946466406187    6.03546892662194
C         -10.47695898312161   15.38838287847752   10.87642268283902
C         -11.55984051901286   15.29387661207456   11.69562146713303
C         -11.93437880919932   16.21550486367772   12.75536939240255
C         -11.40053168583058   17.45741069779630   12.97838065495884
C         -11.81445329009326   18.32067116297604   14.01500633259027
N         -12.10292745108794   19.06454782049679   14.84024086837891
C         -10.39107581240771   18.06111622895164   12.19863373134830
N          -9.59159814645855   18.62745768350729   11.60009205269303
C         -13.03949872888722   15.61880139075945   13.49502158959947
C         -13.36664003346064   14.36804897471114   12.89711103792032
C         -12.46111618531069   14.10901654067146   11.76695698000831
O         -12.40977793879168   13.10328019135751   11.09258053763238
C         -14.37711219323366   13.58183599671874   13.37148539919241
C         -15.12608003823153   14.02141690007261   14.48539814948664
C         -14.80253006780676   15.26903316875070   15.09352167833256
C         -13.74732185792658   16.05887485142788   14.58280463790563
C         -15.55454419777437   15.69649040444003   16.20683982936143
C         -16.57809363593570   14.93110013664397   16.69557606066166
C         -16.89624678217888   13.70352008109611   16.09532886878318
C         -16.18577354767386   13.25825561090843   15.01370982604075
H          -1.17094171439055   -2.81627962121755   -2.40239934993422
H          -2.74347811728982    1.33279967165556   -4.68539808035290
H          -4.05146248556044   -0.01847845705036   -6.22379120613697
H          -4.81769402001393   -2.21903548389716   -7.02032832269138
H          -4.04877846151337   -4.27911956698950   -5.91054381479537
H          -2.50710294970374   -4.15495059801315   -3.99352786888613
H           0.68207374188942    1.20994690727435    0.58129270799513
H           2.44075872691259    3.76279679988295    0.39385387993355
H           3.45855803915836    5.13218200657578    2.06536630553249
H           2.04496051117933    5.04067326162926    3.13080229419491
H           2.00766327221274    6.43832302275483    0.42027996791479
H           2.30205375539907    7.27744868448394    1.96030523159765
H           0.10605672451499    6.58230740434013    2.81355111258080
H          -3.49180098543941    5.96041572121210    0.01312258032777
H          -2.20331026967131    7.04886224368526    2.56630838116823
H          -2.08325917649362    8.54701538067472    5.59176949259188
H          -3.50658980393304    9.59913937460129    5.63624885362894
H          -1.10400820061674    9.89845590435476    3.73407703574552
H          -1.37359725788058   10.88261875797733    5.18235290555167
H          -2.46424008008838   11.00695529878541    3.79320202707254
H          -6.66785496163305   10.72024734759219    2.07929873996251
H          -6.46434708571839    9.39828398781115    0.02090892030068
H          -4.71319898676558    7.67949949072946   -0.15768848426389
H          -4.45902600997056   11.12189486001458    4.70764574493061
H          -7.38169125375836   10.32681586206328    4.30421518694953
H          -9.01599434217713   11.59836661536636    5.91282998045092
H          -4.80825141446673   12.36349462590378    6.58318632245272
H          -8.00559026037327   14.60635303912038    9.72862427564603
H         -12.21595435812055   14.01047967595038    8.93365312113210
H          -9.72530502804520   16.13852036293196   11.09193383826501
H         -14.60419241466016   12.63755862049361   12.89911206147680
H         -13.52397790693560   16.99491568062317   15.06944869626188
H         -15.30662279844625   16.64267014760809   16.66498599398490
H         -17.14891920725285   15.26769859535097   17.54792011563436
H         -17.70694997668011   13.11248027889899   16.49429865969815
H         -16.42576267530997   12.31395334878309   14.54735575898411
