106
 SCF done       -193.827260932602          0.000228646267
C           3.27975534361227    7.87984731630002   -5.52825238471166
C           4.07880168478131    7.40010534233434   -4.52364960649229
C           5.47927253676150    7.26452965555253   -4.63076902356503
N           6.61951495526014    7.13350569335946   -4.65250405184704
C           3.62989121665523    6.92303367108077   -3.27367778357375
N           3.34357615842950    6.49371091802621   -2.24761508620107
C           3.73501398174362    8.25024658082179   -6.86170355927445
C           2.59180813688291    8.48488651114071   -7.67589262911914
C           2.70003366484871    8.83983262733138   -8.98961853620352
C           3.98466683266276    8.98696137424045   -9.55845824993732
C           5.13506992243273    8.76353560013861   -8.74777510388900
C           4.99041339522821    8.39180999881000   -7.39136839066570
C           6.41204970589753    8.91935731355155   -9.32437726197567
C           6.54813919205175    9.27731018943744  -10.63805366958244
C           5.41478032887607    9.49629267238219  -11.43533367321626
C           4.16032201579443    9.35369489671053  -10.90718399338181
C           1.36769104921634    8.29123377114629   -6.88092241799398
O           0.23107051675656    8.36921513304896   -7.29824094348536
C           1.83014639586837    8.01568117936545   -5.49595574491184
C           1.10290314366879    8.03504017491325   -4.33964845786947
C          -0.29023449638656    8.11945370386469   -4.12114018422700
S          -0.81341736197301    8.35995403786604   -2.46052786078648
C          -2.47667380020823    8.32256468431418   -2.91844265929035
C          -2.60157417052207    8.11506372701283   -4.30113352981710
C          -1.37818251747054    8.00405882005610   -4.96663743168630
C          -3.85569076998574    8.03071190097996   -4.93027706971041
N          -4.88951125091074    7.96203193535425   -5.42263641791602
C          -3.55170157140294    8.48961804707615   -2.01629238310784
C          -3.41548732440284    8.74268877131525   -0.68995472506151
C          -4.50543373120224    8.92947901777950    0.18912062205413
S          -6.14883656472855    8.75668260822327   -0.40383521310920
C          -6.79744801042257    9.09487661417509    1.16045596559204
N          -8.13034039940945    9.18030662011221    1.32716593562797
C          -9.03238689090325    9.08928627659767    0.20754828746650
C          -5.79933845319251    9.31178351216287    2.12521076192025
C          -4.49690748131143    9.23414983688168    1.54035356131774
C          -3.20957966156579    9.44062493768837    2.25085602785631
O          -2.19338305846247    9.78898710066512    1.69753941551954
O          -3.29710109289523    9.19653332466608    3.55762586040098
C          -2.12525875267404    9.38463946030740    4.35007492677346
C          -6.04328992687225    9.62002668796627    3.49366189535985
C          -7.15384931787030    9.34803258658676    4.23040771440866
C          -7.26887146875688    9.71143606424554    5.59638322470639
C          -6.33262223101118   10.30776996117588    6.41714116741099
C          -6.88841069451077   10.50554471678876    7.70219624015911
C          -8.27432410479520    9.98709306657699    7.63839971024862
C          -8.47594360690950    9.50044222187495    6.38891620353154
C          -9.20683761195728    9.93476743781716    8.68068855905541
N         -10.00304183916875    9.85072822512672    9.50437385386837
C          -6.27524256358738   11.06612034908821    8.80209202980943
C          -6.88548762332552   11.43878404003235   10.03271114526063
C          -5.93508666196226   12.01859100762417   10.84911943578236
C          -4.66018886030603   11.96656088041135   10.15194524699654
C          -4.85503024581637   11.42970456109561    8.91629126346323
C          -3.86552646647637   11.20867167789084    7.95566739976123
N          -3.04144178191988   11.02353753292656    7.17485006105632
C          -6.06227348578688   12.54008770889127   12.16201091984040
C          -7.18277150571407   13.03789217379821   12.76094073779717
C          -7.27803766768439   13.45116972906934   14.15001689256474
C          -6.40128381978564   13.13154466393312   15.15486710186353
C          -6.55522256852489   13.53976859557179   16.49616982985662
N          -6.61675373387829   13.84656066702064   17.60084798616053
C          -5.24559120269605   12.33648884408970   15.00633743199439
N          -4.29858349434368   11.68742516416298   14.97259557644459
C          -8.51857143465714   14.19799912225178   14.31390496023615
C          -9.20831918871817   14.20538863969314   13.06898921398471
C          -8.42561683505907   13.46976193981127   12.06048974523932
O          -8.71594571226498   13.32956804414517   10.89303867539645
C         -10.41329142595633   14.82742966751654   12.91365080572902
C         -10.99687433345329   15.48294002179795   14.02057888991465
C         -10.31008492929345   15.48681579357856   15.26901481652470
C          -9.06208925358497   14.83519403228659   15.39823005170279
C         -10.89931636309605   16.14889838619571   16.36540186973731
C         -12.10899818118830   16.77540823582619   16.23731817931658
C         -12.78483513740565   16.76969474711940   15.00792701491264
C         -12.24083272420990   16.13678059099454   13.92338109632426
H           1.81583077363295    9.00825409574101   -9.58636647099764
H           5.88051356779833    8.23613595259887   -6.80284596481037
H           7.28168196836707    8.74809208248725   -8.70707462686512
H           7.53061063825360    9.39367151273957  -11.07041975874503
H           5.54062902895882    9.77879611563104  -12.46983741344548
H           3.28383028105063    9.52103044471132  -11.51597336998638
H           1.67207688367653    8.00740408188310   -3.41713157814950
H          -1.28654636720742    7.85167516790308   -6.02656009630049
H          -4.54202044256178    8.41816733005700   -2.45324800190874
H          -2.43003503601802    8.84446887367843   -0.25586073117201
H          -8.44662912856633    9.70211607057255    2.13256997712323
H          -8.90031985050454    9.92109519266774   -0.49231453271507
H         -10.05544500026703    9.08845331191858    0.57436743270051
H          -8.84659039049844    8.15917436544540   -0.33109463226672
H          -1.40438426407203    9.99982685544252    3.81008894651135
H          -1.68658857121133    8.41011108549661    4.56732213833463
H          -2.43045371939774    9.87158259096326    5.27617789347191
H          -5.22098393252023   10.09419948375743    4.00559036480367
H          -7.98034364957741    8.78373309271568    3.81975615860575
H          -5.33781332631371   10.59382804674919    6.14343138901403
H          -9.37410230818973    9.03657742330469    6.02249759045436
H          -7.91913190711230   11.28627247738032   10.26648226792108
H          -3.72875626373044   12.31831661299129   10.55689908064462
H          -5.13595240217633   12.56458861073785   12.72540505641862
H         -10.91607117003172   14.81513479462994   11.95801611680236
H          -8.56448190311603   14.86209886820931   16.35462247858509
H         -10.37610278690629   16.14926304380633   17.31038705899401
H         -12.55239667727255   17.27887769098626   17.08332521636310
H         -13.73842831258740   17.26939341558708   14.92465904551148
H         -12.75628054668577   16.12851796743645   12.97408869619724
