128
 SCF done       -242.757911954433          0.000744758924
C           3.23463697448761    4.29277672718926   -2.29048810877539
C           2.82222052348328    4.29775518185280   -3.59563762140137
C           3.68343079084173    4.09210925539936   -4.69514563753930
N           4.32967036901002    3.94235353401485   -5.63173038239942
C           1.49644187876449    4.49661772511146   -4.03766704828879
N           0.44660918613227    4.64687064802576   -4.47729971461925
C           4.58973256781588    4.02686922451626   -1.82665374342815
C           4.59345349588587    4.02536267014009   -0.40268386069208
C           5.72874434355685    3.79260851559557    0.31890698182174
C           6.93800125088887    3.54013277650698   -0.36516466781500
C           6.94488725813675    3.54043786902289   -1.79018795251857
C           5.75367335230680    3.78942795097218   -2.50946221227100
C           8.15762760446265    3.28606567192696   -2.46257750939132
C           9.30830811971979    3.04222312505588   -1.76323821098532
C           9.30025059462408    3.04291142350475   -0.36034292062696
C           8.14017568309423    3.28623352226106    0.32379991038852
C           3.23916593652844    4.29278880024122    0.09050424270532
O           2.89345955511910    4.42848808956272    1.24865239849695
C           2.39055959701833    4.46165633981152   -1.11622977454322
C           1.08343092319021    4.84316018457630   -1.11850892226901
C           0.15250088978604    4.85511903028805   -0.04224296628833
S          -1.07902939982680    6.08496406951681   -0.08714867268701
C          -1.84749724114754    5.45938132625928    1.33357554328750
C          -1.18268123689221    4.32371839034850    1.79044874848218
C          -0.06476744782384    3.97991598962464    1.01607041562531
C           0.71256266053967    2.72982626697179    1.27985410736451
N           1.08396510200314    2.06510636126390    0.00839827544731
O           0.21693743626047    1.92755007067437   -0.81816010246026
O           2.22350565760788    1.68155562733485   -0.10336686720993
C          -0.11578352075655    1.73847156364733    2.09920185215029
C          -0.61432800370907    2.44371190680681    3.35248199720170
C          -1.63412999752847    3.52270859716553    2.97597353435087
N          -1.79044605340871    4.40216648177902    4.17210200050155
O          -0.87815660056691    5.13641434723166    4.44396363136675
O          -2.81751011859118    4.29032781466115    4.79754078110062
C          -2.99988243863633    6.06509354813679    1.89869979349337
C          -3.58355328390749    7.18538800183297    1.40185893498436
C          -4.72948306372720    7.87204292065926    1.87575600155225
N          -5.44317373076996    7.70613227371421    3.04202411548775
C          -5.11783415698044    6.91130504652224    4.20393438851951
C          -3.87644541116841    7.42747872504203    4.92517730705626
C          -6.54830981390956    8.58781180424984    3.10488874232473
O          -7.31872224748493    8.63293159912351    4.03939748786454
C          -6.48921476062448    9.32585583087213    1.86494279549439
C          -5.36431182089790    8.87848159565698    1.14546521145317
C          -5.30626714898336    9.62660183814517   -0.09121058475176
O          -4.52814898021500    9.60444931905222   -1.01946232191883
N          -6.41967986628045   10.49823568103116   -0.02721605597300
C          -6.69796927374012   11.37788352016439   -1.13670811309144
C          -7.80260398877313   10.82666573689641   -2.03585853813803
C          -7.13841121332656   10.32122306025002    1.13258595144522
C          -8.30272448652492   10.96868444454666    1.61016469520333
C          -9.05659052186417   11.94924079729147    1.04888315912871
C         -10.19998720904364   12.49227442715096    1.68792342037899
S         -10.74534092789970   11.92256858427933    3.23238909274737
C         -12.07809070589985   13.03784702230329    3.25572946146270
C         -12.10345971474177   13.79413531393788    2.08604299801301
C         -11.04309274819995   13.49693879752856    1.21852741804029
C         -10.87256863135591   14.19270577263794   -0.10101931561730
F          -9.55089238057784   14.48185040281526   -0.36336062708896
C         -11.68111380815208   15.49480697317967   -0.14452847670536
F         -11.17837759890385   16.40412055606412    0.75113488674274
C         -13.12639999715144   15.17887075968037    0.24839864463068
F         -13.56062099875545   14.13999181075621   -0.53817453860004
C         -13.17487136917727   14.78609483161403    1.73283715690677
F         -14.42357445206437   14.26985805219510    1.99301885339109
C         -12.89358238300465   13.04310173094948    4.41710502846946
C         -13.75852059556730   14.01355330566780    4.81127512810187
C         -14.49747480901995   13.89373735177772    6.01077204923163
C         -15.32034752895079   14.86348825661573    6.50897270823649
C         -16.12846999427589   14.78367467934762    7.71260064530138
C         -16.21512004887419   13.72495848216369    8.57972146265096
C         -17.02675385395649   13.71092817609612    9.73385168094124
N         -17.66165151989059   13.62981803262168   10.68701247321185
C         -15.52068894499683   12.50260932908366    8.46466385576610
N         -14.99541413110610   11.48133090634467    8.45261624479668
C         -16.85145034272311   16.04359834437220    7.84722902463807
C         -16.50014589269408   16.89087672086135    6.75778487593650
C         -15.53124796448803   16.20006204098320    5.89089730674340
O         -15.00856252951891   16.64914666139240    4.89083343862857
C         -17.02337090447517   18.14432579865288    6.62010915504704
C         -17.93979279941334   18.61908700863815    7.58476202730924
C         -18.29610100289061   17.77831850570186    8.67836337267783
C         -17.73865736213686   16.48439221677716    8.79364913230933
C         -19.20900557155474   18.26189520150198    9.63766929658852
C         -19.74508738457842   19.51565261140850    9.52407310957912
C         -19.39397791296368   20.34259749757516    8.44654111838270
C         -18.51089767529593   19.90385255169727    7.49747490644394
H           5.70304112005063    3.79610359993793    1.39843660843209
H           5.79409677426056    3.78589738045254   -3.58700752159293
H           8.15909080892626    3.28553140407293   -3.54266366300599
H          10.23173928573222    2.84707383059047   -2.28755545545021
H          10.21753810647938    2.84941475023435    0.17537489025065
H           8.12768993855603    3.28773319076642    1.40394861500694
H           0.67487305311890    5.22767318302844   -2.04549819029395
H           1.64943605654599    2.96997280278146    1.80109034410706
H           0.50135802587055    0.88159573443502    2.37283773696767
H          -0.95941503574979    1.38564278686760    1.50056635473108
H           0.23178618280452    2.91714657406618    3.85716251578094
H          -1.07286911777224    1.72734643258751    4.03543440265082
H          -2.61881234518772    3.07640257466025    2.79213393938725
H          -3.42717946632599    5.57354991754773    2.75630398676805
H          -3.16659826911736    7.62946421488322    0.50519474026524
H          -5.01059633115256    5.85825621194149    3.93289642697464
H          -5.98522000580771    6.99927759673306    4.86518092490188
H          -3.01521352518660    7.46191841866945    4.26157302083883
H          -3.64558875847009    6.77102888218966    5.75886189613868
H          -4.05634675340012    8.42969243972569    5.30603277415986
H          -5.76645397973237   11.43801511378977   -1.70784315121789
H          -6.94149397223149   12.37611736010739   -0.76534342081459
H          -7.48280638747716    9.88578465538890   -2.47676913298876
H          -8.01104312686955   11.53148451280775   -2.83596615346129
H          -8.71705048551888   10.64911794829630   -1.47399628149399
H          -8.60401144392648   10.59582868843803    2.58336915967734
H          -8.81339138557882   12.36612159668572    0.08657123619002
H         -11.20778928287404   13.54727317237360   -0.92734079682891
H         -11.61135179406920   15.95567443221299   -1.13666184671135
H         -13.80226474305955   16.02008395188567    0.05814084085194
H         -13.08006840803776   15.70182451331788    2.33523082593854
H         -12.74829190103380   12.19112159588429    5.07233998241025
H         -13.90073489655215   14.91389456930326    4.23931792869229
H         -14.39539519273113   12.96161733550922    6.55143797723587
H         -16.73998809535086   18.76727267211183    5.78463562379930
H         -18.02979026445290   15.87413526471215    9.63351968759178
H         -19.47600872092958   17.62121084472900   10.46528907784481
H         -20.44289280689169   19.87737845737749   10.26433349306149
H         -19.82666516864029   21.32910899105235    8.37247303389647
H         -18.23689191687770   20.53649086147649    6.66583005991063
