131
 SCF done       -246.715341853566          0.000594886326
C          -2.18333262653462    0.85701897296265   -2.89292951400415
C          -1.01060161248244    0.36751928907735   -3.40649915971218
C          -0.85847705398160   -0.94259339880094   -3.90879010496307
N          -0.67605238037418   -1.99514999192731   -4.32803546494017
C           0.18133552764695    1.10764683932481   -3.55651188443187
N           1.16474947688698    1.67263816513676   -3.74081870869770
C          -3.45967116911627    0.15481767837269   -2.84996951954124
C          -4.46378321406793    1.06036735807226   -2.39497844243603
C          -5.77269509727050    0.68907988809499   -2.27795567873988
C          -6.14548293570929   -0.63145105410802   -2.61367057559324
C          -5.14727925646108   -1.54589750980103   -3.06017010913639
C          -3.79981351177883   -1.13235752694703   -3.17236561399287
C          -5.53095646183055   -2.86121038334629   -3.39099153306598
C          -6.83766424746159   -3.25555609879551   -3.28929501727317
C          -7.81940197498598   -2.35437993051309   -2.85113355397700
C          -7.48074150759485   -1.07011148628691   -2.51987721304027
C          -3.84864917692233    2.36190643752843   -2.11002090363059
O          -4.40494840189209    3.37439227996925   -1.72623750036627
C          -2.40796072687116    2.19570959843617   -2.37143143370351
C          -1.42813199694896    3.10505749201981   -2.10066356406280
C          -1.52281743054918    4.44202604836105   -1.66091112949518
S          -2.98545964387649    5.33937858287768   -1.41648632775009
C          -2.09539148313495    6.78901355066918   -1.06826558262572
C          -0.71547235990060    6.58652400482921   -1.17285676272112
C          -0.39629452568219    5.26130842883277   -1.46399444184766
C           1.01281461971866    4.73840571893703   -1.44001348766460
N           1.06397348689088    3.86000001112461   -0.21483023582968
O           0.95270902439905    2.67459426643025   -0.38610412214247
O           1.16522208276679    4.41222232101728    0.84988602232671
C           2.05923143119945    5.84428049661283   -1.30198723248013
C           1.57770409341473    7.14561614804308   -1.92418899463807
C           0.34173096418513    7.64943225488706   -1.16725231764203
N          -0.11361121673171    8.85591193170217   -1.91087092170514
O          -0.70667793670300    8.68211391590851   -2.94213087263822
O           0.19134144305141    9.92749262274740   -1.44355501322044
C          -2.85792734052018    7.92828666746976   -0.70879594112604
C          -2.41121056612270    9.05634052755203   -0.09070625292251
C          -3.26387205642903   10.14826918881582    0.18844962406235
N          -2.82286119234215   11.34933499035052    0.67754919682826
C          -1.45525006809031   11.71902032035293    0.96135684824095
C          -1.00668099001387   11.21918924230978    2.33247968928718
C          -3.88039229683895   12.26477702442197    0.86220026122494
O          -3.73774497905750   13.39816642027624    1.26424663048935
C          -5.05545935383737   11.52245531281087    0.45385503533359
C          -4.65661937596933   10.24716315494479    0.03196188816783
C          -5.85151300090018    9.53350472257241   -0.37999965890782
O          -6.00971327430457    8.41061646910985   -0.81035806961614
N          -6.90381643232740   10.44590115185604   -0.17425581977251
C          -8.25713984315623   10.07021558266333   -0.51791582857835
C          -8.68661745243767   10.65553073525865   -1.86014975712620
C          -6.44838418371148   11.64502375829149    0.31993076748654
C          -7.11126364905260   12.83963423763488    0.63974762646821
C          -8.44209725110344   13.15917060001719    0.55565950946490
C          -8.95325576398282   14.43350050373152    0.84710057803961
C         -10.25965255241588   14.73945228442136    1.24466501613729
N         -11.36398432346565   13.87779092036386    1.30526338589177
O         -12.42139270538448   14.34344163158643    1.69351036854474
O         -11.22136819479737   12.71230000152618    0.95747831239980
C         -10.31409126720141   16.10393587336130    1.66403888862420
C          -9.06986794215058   16.65164829767924    1.55444257599876
C          -8.18422652980272   15.68515514593874    0.98682280130569
C          -6.92576608790432   15.93359109553914    0.46364020059059
C          -6.39122762517357   15.36472291911404   -0.73920323899648
C          -5.26306288064414   16.04168296956291   -1.08549198934722
C          -4.98792417365728   17.02112487012912   -0.07795243463858
N          -3.83791367735683   17.83248367564373   -0.10454300005908
O          -3.64086832987815   18.60089471957271    0.82175679807459
O          -3.10562209352263   17.72670123753988   -1.07237313177424
C          -5.98293946947955   16.97641823333920    0.89702359355609
C          -5.99828716522583   17.65091603022296    2.13727578588404
C          -6.66314533415350   17.20033921980635    3.24147719070199
C          -6.69494857118029   17.91753451361041    4.45439131483449
C          -7.38177656860846   17.50086751027863    5.56267009050062
C          -7.44708328775098   18.16802633613328    6.84904910143616
C          -7.02334540348902   19.43977785301614    7.13735951217208
C          -7.12478469406654   20.03510095573650    8.41248014943099
N          -7.17576477749718   20.57536495454159    9.42406810925264
C          -6.47145889959320   20.34911039795139    6.21022784988563
N          -6.03858979184788   21.15334007034990    5.51450789462647
C          -8.10442224857183   17.26322124114797    7.78575551754152
C          -8.53135801436002   16.10478179528792    7.07511834394814
C          -8.13623026477086   16.22090059924054    5.66292490452888
O          -8.38007917657345   15.42842072063362    4.77488813285656
C          -9.19488225837657   15.08319826160979    7.69216037661803
C          -9.45720942517496   15.16950351380266    9.07742549647948
C          -9.02197968934199   16.31913331076105    9.79824360411417
C          -8.34420536919343   17.36497582630339    9.13037486753188
C          -9.28087158123765   16.39118638589772   11.18194877349418
C          -9.93916940482020   15.37801249411742   11.82446201595845
C         -10.36938065273007   14.24772195562794   11.11345516570819
C         -10.13392480310731   14.14571713342082    9.76913910663622
H          -6.51421051150736    1.39545574076344   -1.93555623654175
H          -3.06803736969573   -1.84879375804101   -3.51028366424186
H          -4.77203992405733   -3.55124294612186   -3.72913983765515
H          -7.12174638494126   -4.26476569967940   -3.54664136014447
H          -8.84528459343622   -2.68243775515701   -2.77738889561455
H          -8.23217016716784   -0.37178941705120   -2.18190835249599
H          -0.41808729068651    2.75383120733715   -2.25212323996982
H           1.21666698224596    4.08869310747836   -2.29597449132973
H           2.98885003028179    5.53051234985829   -1.77631855688174
H           2.25371719492280    6.01149646921279   -0.23917268985121
H           1.30972924331928    6.98428227283590   -2.97123848250797
H           2.37019587401619    7.89383535962955   -1.87671769977704
H           0.62001633897224    7.96938652005807   -0.15704405763537
H          -3.91718762445979    7.84846217325430   -0.92292302629364
H          -1.38518763996217    9.15705774564822    0.22360882577538
H          -1.42789390223431   12.81177154727421    0.94794503265351
H          -0.80248354625546   11.34256216270833    0.16923025555936
H          -1.63226824941373   11.65178682331588    3.10942454695292
H           0.02228113940441   11.51821388075790    2.50949210599463
H          -1.07373276627875   10.13540450734217    2.40071649608317
H          -8.93766773816781   10.36841761458198    0.28209458984852
H          -8.25493820119586    8.97828059630878   -0.58389901469601
H          -8.62238426783539   11.74101660128941   -1.85646865128983
H          -9.71357360014163   10.37020732547032   -2.06802141753231
H          -8.04983898180586   10.27259129637651   -2.65404118826023
H          -6.42954866051405   13.59181377313015    1.01720357899880
H          -9.18340039793293   12.40553055108570    0.33475468746381
H         -11.21038253862317   16.58535716148630    2.00684774695562
H          -8.80976978876676   17.67481266401914    1.74412413370996
H          -6.88316445774270   14.61120329815836   -1.32309162959835
H          -4.65041724707343   15.89472401680088   -1.95439818868369
H          -5.38278462209495   18.53987622751270    2.21263919122684
H          -7.17695884897488   16.25080531867854    3.21250383783186
H          -6.13856915355817   18.84553039256669    4.49311858493695
H          -9.51315309118447   14.21817022455419    7.12941804902681
H          -8.02686997956044   18.22030958378140    9.70521458779528
H          -8.94938474724457   17.26419887764374   11.72469888999969
H         -10.13250888015397   15.44240259116738   12.88469478503762
H         -10.88816099687019   13.45825995061556   11.63628909272512
H         -10.46296052646635   13.27808715563302    9.21626080068680
