120
 SCF done       -216.824819910756          0.000543828355
C           1.75937912342251    0.91520296080527    2.95166993548806
C           2.81723123968702    1.15280418310588    3.78910972516244
C           3.31335825930874    0.21740522544036    4.72212474643130
N           3.75676058899453   -0.49181760037488    5.50811645898527
C           3.56447652980877    2.34870709677969    3.83261188671400
N           4.21999533481522    3.28745142298970    3.91805224163707
C           1.01486398676520   -0.33206554747728    2.84906346615974
C           0.05842480305427   -0.20882304224143    1.80043604863476
C          -0.78594720918690   -1.23032923877090    1.47032224183128
C          -0.70567547459619   -2.44768094521379    2.18169040569125
C           0.24735855657293   -2.57870903860787    3.23350541337293
C           1.10406430729641   -1.50203933307486    3.55686447884927
C           0.31669339886749   -3.79741679855100    3.93887363672584
C          -0.51345050055011   -4.83791602017112    3.62157969774270
C          -1.45129659264696   -4.70789409694244    2.58610768965058
C          -1.54491668657229   -3.53866484875972    1.88105457544777
C           0.15229080647759    1.12640870345784    1.19583822485704
O          -0.57164637986859    1.58953720929974    0.34205378210951
C           1.23674973127147    1.82770483615412    1.94968733434993
C           1.54027800432542    3.14485846884072    1.81565795412234
C           1.16082920760248    3.95086026708616    0.70778589857214
S           0.83035430774753    5.65143898680172    0.90974535951451
C           0.50333894112285    5.89110955880972   -0.79220341109968
C           0.66550336849571    4.68668071102687   -1.46734960799511
C           1.04078965550502    3.61673971960381   -0.62580102019535
C           1.32336237569681    2.40778531711836   -1.41795747544624
O           1.88867211568064    1.40457756825528   -1.06771883087817
C           0.82562354312285    2.72146133964716   -2.81689073467727
C           0.50224532355538    4.20763835992805   -2.84672591895214
O           0.16229567534493    4.83095688321173   -3.82031508595896
C           0.14719666342666    7.19440509529885   -1.22065961918626
C           0.09691634956183    7.59399316598227   -2.51790209142248
C          -0.20600377658462    8.88906209793061   -3.00992378530288
N          -0.87388531883508    9.92680488717738   -2.40018484994983
C          -1.60867693928869    9.92656906143707   -1.15590822623694
C          -2.78104468592720    8.95148545047262   -1.17492053782232
C          -0.94170722791292   11.06208724409843   -3.23606984240228
O          -1.50224382884460   12.09068195416305   -2.91671700835131
C          -0.22895125956146   10.67912333479049   -4.43364508222787
C           0.18960648173587    9.34375418699893   -4.27023560099375
C           0.96178041604465    8.96108998524534   -5.43773324400836
O           1.54448692102552    7.94540154228694   -5.73608070669541
N           0.94177708578446   10.11691913237746   -6.24808211239119
C           1.55572195784376   10.11813271932147   -7.55381846954553
C           0.52103450651867    9.97650157046974   -8.66727335013844
C           0.24399575288534   11.14860551337933   -5.66773275394099
C           0.11288555565963   12.43064951064475   -6.23729063103008
C          -0.63747667675978   13.41955285636912   -5.66593345894618
C          -0.75291035974519   14.73157593124709   -6.17056903484796
C          -1.55845510509746   15.72693183047331   -5.64191880827010
C          -1.36387079789126   16.92740596573155   -6.37036238485645
C          -0.37332896362485   16.61285250842322   -7.41868944715866
C          -0.03202715658990   15.30425805354891   -7.30067518783815
C           0.10913159497529   17.47323476204145   -8.41217446239845
N           0.52590040919279   18.13579772275856   -9.25265166341703
C          -1.95420301693143   18.15663612713238   -6.15358092087431
C          -1.62774562475734   19.39509741763678   -6.76659464024552
C          -2.44577609955204   20.38594370570179   -6.25316452286248
C          -3.34981879535176   19.76076776807898   -5.29727675264115
C          -3.05487835849918   18.43803875001870   -5.21222779235902
C          -3.72553314785562   17.51517039648450   -4.40179516278547
N          -4.30419739895295   16.78836655015645   -3.72629555036330
C          -2.45249821537816   21.77207047620966   -6.53573129680339
C          -1.51947241979634   22.41537092873442   -7.29491077370638
C          -1.58051165201634   23.80734305655275   -7.51638869176697
C          -0.62870923191189   24.53481429797200   -8.17720924519534
C          -0.65059927381911   25.96024818697435   -8.44311404266824
C          -1.67568374354629   26.83290223396545   -8.17657683895220
C          -1.63813822795257   28.21157700854479   -8.47320210525836
N          -1.67660995801570   29.33914214909986   -8.68641867542933
C          -2.91215791365228   26.49678055628873   -7.58787851326876
N          -3.94284732382290   26.30939839261137   -7.11649565592648
C           0.61390198352600   26.31486659886361   -9.07921095311932
C           1.38982987297648   25.13203108339611   -9.24207563085214
C           0.65111493547441   23.98002339676313   -8.69866555527982
O           1.02788725991546   22.82823639722859   -8.66804112656128
C           2.62963290135293   25.15259619828515   -9.81247553368285
C           3.16525201331982   26.38394467870701  -10.25122936349989
C           2.39873306556124   27.57379888866792  -10.08711836712932
C           1.11525706652239   27.51979162634212   -9.49645255690106
C           2.94544634241481   28.79844826309280  -10.52173017194262
C           4.18880043132434   28.84719595094551  -11.09111170271761
C           4.94192318694162   27.67471505759985  -11.25334232619322
C           4.44078770122872   26.46915396746398  -10.84283021924253
H          -1.50230404669045   -1.11156993585061    0.67107358117974
H           1.80958703900988   -1.63015569853236    4.36240901342719
H           1.04106851614728   -3.89335511677754    4.73426263960554
H          -0.45176724237198   -5.76773788846088    4.16677183988308
H          -2.09903162587320   -5.53883108049624    2.35008286587582
H          -2.26468419976724   -3.43283045812336    1.08265107015630
H           2.09905452422629    3.64997703516952    2.59361294379956
H          -0.08372735404362    2.14632015641866   -3.01064219064346
H           1.54723319934184    2.44409307203622   -3.58698456416897
H          -0.02533685131786    7.89641518171807   -0.41793184310729
H           0.36905933720807    6.89097280379023   -3.29572222680732
H          -1.98303676176294   10.94935522657418   -1.04534201615470
H          -0.93668994241931    9.72137182033968   -0.31839748724331
H          -3.46057710960484    9.20365361503465   -1.98528197942756
H          -3.32329427713136    9.01706000646293   -0.23584071631615
H          -2.44256632167760    7.92742989677260   -1.31287229606058
H           2.23098439784140    9.25798853670747   -7.56806506842662
H           2.14660655835125   11.02968515356878   -7.68260550440210
H          -0.02490628687958    9.04386493299970   -8.54882958864862
H           1.01869292158487    9.96688402524187   -9.63296832811345
H          -0.19109957228484   10.79878602291113   -8.64759085741367
H           0.63667596552310   12.62062447253401   -7.16284058442965
H          -1.18536308704820   13.20651799434857   -4.75722424794693
H          -2.20882066986768   15.61373828427033   -4.79665898213266
H           0.66238014283383   14.78097500229792   -7.93116722703485
H          -0.85565401076991   19.52676778091984   -7.49862607691773
H          -4.11436962639675   20.28151939110818   -4.75033199529958
H          -3.24878453740995   22.35357888386427   -6.08444442931872
H          -0.69656512624259   21.86651535579955   -7.72700362445096
H          -2.44491273663682   24.32207424040412   -7.11545968932252
H           3.19502569584696   24.23939043776874   -9.92472366468436
H           0.56299624267335   28.43933493496570   -9.38578754793322
H           2.36167145291171   29.69847250497819  -10.39545895059234
H           4.59917220201510   29.79023794285515  -11.41984881610856
H           5.92118978524002   27.73166769113474  -11.70472526320762
H           5.01574909644400   25.56283925924206  -10.96468025870056
