124
 SCF done       -224.069440137840          0.000514858151
C          -2.03133161641561    0.23551313600261   -0.16692191619094
C          -0.77828877858368    0.67353581436442   -0.50426595731686
C           0.16678259119703   -0.09795958252097   -1.21174467004464
N           0.97895960005663   -0.67132071668831   -1.78489324365290
C          -0.26606921018890    1.92875591629414   -0.13250195774084
N           0.18283744618909    2.94698253811583    0.15167390526603
C          -2.52077246858541   -1.12740839398627   -0.34579003829812
C          -3.65658397349149   -1.32074272016477    0.49384709953427
C          -4.30706313922409   -2.51960719946907    0.56075292760881
C          -3.84959701470950   -3.59530561673499   -0.23249670832882
C          -2.72786485154357   -3.40271173087097   -1.09046490324565
C          -2.06964119435896   -2.15158329255823   -1.13348211988904
C          -2.28887501959232   -4.48185217285022   -1.88403049279666
C          -2.92217536994844   -5.69384613809661   -1.83098843722423
C          -4.02445377335157   -5.88290019495013   -0.98403532084325
C          -4.47842437841617   -4.85574551987903   -0.20200607380894
C          -3.96150056384480   -0.06424783984323    1.19086352385762
O          -4.81007854780537    0.14999051665629    2.02443630977254
C          -3.01731971861927    0.94927409328463    0.61246442021165
C          -3.29941665440189    2.25718602694568    0.84836048464822
C          -2.85644275668501    3.45768612743085    0.24173347679747
S          -3.09009546143205    4.94935640560154    1.13450358168482
C          -2.31934028620598    3.75945694478775   -0.99566636830686
C          -1.97116723772227    3.03995165301102   -2.23187588595950
O          -2.07779287037566    1.86873793359887   -2.51082658904372
N          -1.47307153723435    4.01118090539005   -3.08486886244729
C          -1.00882165775976    3.72139255281781   -4.42504178290374
C          -2.15382370315966    3.76724327612680   -5.43057004090315
C          -1.51088805106881    5.29343543769562   -2.55519748770640
O          -1.14355442114245    6.28358920459942   -3.14342248598023
C          -2.07279174184644    5.13334101871822   -1.20584740356986
C          -2.42680896329519    5.94269759247593   -0.13838948967002
C          -2.37968144665057    7.34529084708709    0.05128358381566
C          -1.84413813189490    8.21894982569627   -0.84208733990483
C          -1.89602089148668    9.62062553814515   -0.64399391143054
N          -1.36860627917285   10.53484627825296   -1.52158713026863
C          -0.67680108874847   10.24770545644614   -2.75646553533386
C          -1.64215728892872    9.90428304133233   -3.88754385542057
C          -1.61936160251278   11.86039355106665   -1.11859817024457
O          -1.25776044415216   12.83475463562490   -1.74112774132652
C          -2.35092314347711   11.72104961058528    0.12476193246138
C          -2.49573548893155   10.33936703761156    0.39317612297263
C          -3.24576348691928   10.20082625480499    1.62259075187519
O          -3.60341454868638    9.22552797532715    2.25479069015768
N          -3.51531315781360   11.51993267539374    2.01517365984710
C          -4.28638833831467   11.80012983757479    3.20244546909496
C          -5.75310581210735   12.07583580911110    2.87933365284779
C          -3.00024293306509   12.43968787164771    1.12689673917707
C          -3.18756122544808   13.83323478781565    1.26522210148255
C          -2.65227148117431   14.77644683108293    0.44469462657924
C          -2.94898655655904   16.15042723338762    0.59843726149365
S          -4.16982428372686   16.72085286811241    1.72758169056719
C          -2.42978501587104   17.24128118964222   -0.07023244006808
C          -1.41304374295892   17.47155698873896   -1.11284818223047
O          -0.68518957221987   16.70068670981484   -1.68033726705417
N          -1.45182144535375   18.84583523808208   -1.33795434625474
C          -0.59105121007224   19.51288520590270   -2.29184870933887
C           0.62074698821433   20.13087171360583   -1.60355716197746
C          -2.36664017938935   19.52687275301622   -0.54680380311971
O          -2.58416570360991   20.70995320027714   -0.60928771759672
C          -2.98232145039107   18.48423271551982    0.29942466750541
C          -3.95680925236385   18.40200237783402    1.27491314422735
C          -4.75988357143869   19.37688952579375    1.91461022282608
C          -4.59217819740987   20.72369934870598    1.83998707248293
C          -5.49325636710108   21.58198343047292    2.51781460578027
C          -5.34433100654857   22.92742006661966    2.67984188024499
C          -6.29241643770154   23.83610250392982    3.30034967589030
C          -7.52144372779131   23.51788957041433    3.81952432975503
C          -8.40228137205477   24.45348812099443    4.40272633078308
N          -9.16888494072050   25.15609601487321    4.88950814421611
C          -8.09585173652122   22.23030095135291    3.85744019130190
N          -8.63690699647662   21.21970084465626    3.93331449070610
C          -5.71335280413601   25.17408337196360    3.26511942295243
C          -4.43281495398771   25.10378574093332    2.64582338907061
C          -4.13954062212325   23.70663261577366    2.27704295891029
O          -3.11285599190797   23.28285987302576    1.79646473695528
C          -3.65065549438572   26.20972239959615    2.47840056730419
C          -4.12109092395132   27.46252428071072    2.93175608354939
C          -5.40022815582125   27.54155083029168    3.55442139636094
C          -6.18841925192262   26.37928401343790    3.71265218439508
C          -5.85832320580081   28.79501290364221    4.00950990782112
C          -5.09096264810887   29.91752122801328    3.85807476300446
C          -3.83192714038297   29.83881080461952    3.24397231134498
C          -3.35769173458373   28.63788049105268    2.79016479060507
H          -5.16137184460523   -2.64534754075543    1.20928454510262
H          -1.23120866360326   -2.02856470853423   -1.80059210074936
H          -1.43836324530252   -4.33283304275042   -2.53278967393134
H          -2.57667965367725   -6.51459093840833   -2.44155375096596
H          -4.51219711055321   -6.84574038459589   -0.95471426464732
H          -5.32708452399523   -4.99452392765298    0.45174731091239
H          -4.05029574847011    2.40280768300882    1.62281171419588
H          -0.55719467853954    2.72664942376141   -4.40711485036613
H          -0.25138835672898    4.46828254092956   -4.67351460538803
H          -2.91087982997649    3.03068063135986   -5.17118475777718
H          -1.77747861232679    3.54618329244778   -6.42516135532960
H          -2.60826531178574    4.75542853919706   -5.43949790236308
H          -2.82076685244866    7.71448275948366    0.96857665923717
H          -1.38312621536485    7.84750098630156   -1.74522881437858
H           0.03113780738826    9.43100212709973   -2.59692039227132
H          -0.12441635327791   11.15719152727273   -3.00905168157463
H          -2.18006569258832    8.98390463774275   -3.67536347882796
H          -1.08516090644451    9.77161484104402   -4.81043918709585
H          -2.35870759331000   10.71068248598534   -4.02506656262829
H          -3.83856975339133   12.64099019297925    3.73877923066700
H          -4.21441033858374   10.90522720746392    3.82708699411536
H          -5.85666349710736   12.93622664909887    2.22197299287241
H          -6.30081301017680   12.26936074814719    3.79733821222557
H          -6.19190588205254   11.21066530363735    2.38869515085954
H          -3.81576239831754   14.16676213380812    2.08158512769665
H          -1.98521946968916   14.50823874081155   -0.36554579557767
H          -1.18018540028015   20.28918624707610   -2.78677867805757
H          -0.27885991482375   18.76064954290730   -3.01983510741413
H           0.29922704442544   20.87051827216417   -0.87402893754903
H           1.25254957865724   20.61814181612097   -2.34066325923652
H           1.20086835912765   19.36165993881377   -1.09870136061045
H          -5.55510574930000   18.98203847546933    2.53753847239030
H          -3.78064542446116   21.15573035250570    1.27188107877699
H          -6.37398028465463   21.10732251353654    2.93315708012636
H          -2.68306282182301   26.12844592610184    2.00582008622732
H          -7.15102055586965   26.47387647656398    4.18925691728486
H          -6.82840740126444   28.84996199910193    4.48145333905767
H          -5.44980243536520   30.87278049800932    4.21094185440744
H          -3.23960942059369   30.73475302061163    3.13280001835968
H          -2.38896702167904   28.57141204790154    2.31690999983510
