107
 SCF done       -194.701053267801          0.000552322978
C          -0.07115927366472    0.23960333846791   -1.14894369225690
C          -0.01389445680952    1.46319033787279   -1.75360519028528
C          -0.07725824220074    1.64944938625970   -3.15014369060970
N          -0.13209987838770    1.84913504724252   -4.27880383544903
C           0.22955712431148    2.66713422124031   -1.05803347792478
N           0.51064566903198    3.65823147945069   -0.55257592058704
C          -0.02857181189100   -1.05146115279626   -1.82499433298251
C           0.38315525487011   -2.04505703787196   -0.88727523260603
C           0.54709495700759   -3.35122283209677   -1.25172478376089
C           0.29441851720833   -3.73058318502232   -2.58873909479479
C          -0.12992150418257   -2.74494390583253   -3.52718162184257
C          -0.28666770496162   -1.39918935106764   -3.12387256123345
C          -0.38337704499116   -3.13884471667214   -4.85695590170597
C          -0.22493690806577   -4.44171887558825   -5.24358693567898
C           0.19235057451212   -5.41125758902903   -4.31907969657931
C           0.44707251412621   -5.06325288899310   -3.02046326589384
C           0.55701990135123   -1.42807125121979    0.43772691077507
O           0.94937054391509   -1.93695122633597    1.46053152102322
C           0.06980694254839   -0.02245653363777    0.27271351798363
C          -0.29995133715412    0.68635948002363    1.36442167898693
C          -1.12608287825742    1.84273524627338    1.39498543647496
S          -1.29051344839131    2.84044795291777    2.83037017833582
C          -2.45002866978023    3.76701917248021    1.89624394223100
N          -2.62079556459399    3.28363121149815    0.69133735648204
N          -1.89829217370533    2.24349918342876    0.41952015805703
C          -3.13022486248942    4.89493417418546    2.42449028057758
C          -3.98996535423418    5.62069430757381    1.66686446537664
C          -4.72419816455431    6.72046727562720    2.17685456696406
N          -5.61737128849056    7.45368417336506    1.42903992660784
C          -5.95616467088966    7.24218646710348    0.04202958661679
C          -6.93797444590386    6.08677697858159   -0.13545932703367
C          -6.24133015201810    8.45554893942906    2.18689813307670
O          -7.07279713457278    9.22094469306388    1.73618896224603
C          -5.65967722941637    8.32436240778434    3.50471964194058
C          -4.72871640457705    7.25478292782382    3.46287326395506
C          -4.15051794119435    7.11733285795988    4.78115225897742
O          -3.32571328587087    6.34904271152168    5.23429706335258
N          -4.77861326993550    8.11910173371792    5.54204903048112
C          -4.42564682017765    8.33681868204799    6.92443040529735
C          -3.50175305086969    9.54033360814225    7.09345447303142
C          -5.68158024755918    8.84152825315884    4.79795288897372
C          -6.49168376687821    9.87930499755183    5.33484763571482
C          -7.39582157807798   10.54668656271120    4.58189810925295
C          -8.29847331085475   11.56640940240504    5.04838747662331
C          -8.24767063746018   12.11763045612717    6.32938176711735
C          -9.16832761511642   13.06824837972811    6.73439261893921
N          -9.07232589570135   13.51864617276590    8.09988835524856
O          -8.00253986502585   13.38024126256746    8.65548777329836
O         -10.06059323903809   13.99099894699908    8.62127044062778
C         -10.18899604111519   13.52600473058029    5.87844737781769
C         -10.22170929006547   12.97024612982388    4.59039533516108
C          -9.30837529244043   12.02663157527769    4.18602374906151
C         -11.13696294605599   14.54740948136308    6.25551282701210
C         -12.41118454291973   14.57931394528624    5.80606937096842
C         -13.31692389639152   15.60056747932314    6.20046117240486
C         -14.62907724471529   15.64766457815981    5.84043477452814
C         -15.60606761748824   16.64714878153424    6.24397074403787
C         -15.34390701367250   17.85433287153656    6.83458575876776
C         -16.33782047075690   18.79081106281958    7.19084735167940
N         -17.09801420402383   19.59136415139859    7.50507257384740
C         -14.05816832029029   18.35659239705069    7.12895282031351
N         -13.04824968353383   18.84373262296831    7.37565651993188
C         -16.92311779109263   16.16399745361097    5.84758380492690
C         -16.76333724698760   14.95191403840117    5.11652942774535
C         -15.33465145604096   14.60570595162297    5.04250633603036
O         -14.84652295632762   13.66351514798306    4.45459405396877
C         -17.83099308866863   14.27139567099226    4.60518402722119
C         -19.13361392505111   14.77656233113262    4.81241530686546
C         -19.30304962558057   15.98353047491687    5.55094717198580
C         -18.17839153422579   16.66927625785402    6.06354112596515
C         -20.60812887766657   16.47553151588507    5.75732539036885
C         -21.69423378251583   15.80955748083776    5.25840618266173
C         -21.52614039489384   14.62185343277941    4.53061149976566
C         -20.27327664216600   14.11653478219834    4.31211246336842
H           0.86478559025199   -4.08694665070467   -0.52785831223727
H          -0.61920483702448   -0.67414669555203   -3.85024477957202
H          -0.70172839058856   -2.38852981493029   -5.56559223484181
H          -0.42010436964946   -4.73300375690458   -6.26474231044578
H           0.31075479409720   -6.43494242132759   -4.64123001737651
H           0.76887834006950   -5.80510384267088   -2.30433074178917
H          -0.00621921812207    0.28099568518655    2.32594768530640
H          -2.94582825099898    5.14966030441254    3.45873300966666
H          -4.12740786339799    5.33625135755111    0.63411197703713
H          -5.04307407844684    7.06865968495465   -0.53318450033675
H          -6.41927291083306    8.17189120916863   -0.30060812347839
H          -6.51423249300232    5.15412749903613    0.22972699401810
H          -7.18059143898621    5.97143462281882   -1.18805340912591
H          -7.85466756381177    6.29054686877492    0.41267707941573
H          -3.90849510886146    7.42940352175148    7.24867835747380
H          -5.33402017635862    8.45456995493075    7.52218522654756
H          -2.58297291490763    9.38441010863901    6.53359597142514
H          -3.25169235589504    9.66637634796267    8.14309131090795
H          -3.97418230914496   10.45199033794290    6.73440383020412
H          -6.37718289757998   10.09757917229861    6.38622180018368
H          -7.48792622467954   10.28837459886407    3.53508947767132
H          -7.49623821971245   11.81303142285879    7.04158528056946
H         -10.97243609258312   13.31842263456042    3.89852546682537
H          -9.36176385198304   11.61953448326862    3.18743666523250
H         -10.81004577721324   15.30910403611988    6.95142236080718
H         -12.79121613998380   13.79735446203742    5.16530179119649
H         -12.92119566476116   16.36627207714685    6.85565722210635
H         -17.68268331835764   13.35575921806679    4.05201562455423
H         -18.34060009022582   17.57745557053347    6.62194736457507
H         -20.73231664505000   17.39078130599041    6.31724726750589
H         -22.68967465492282   16.19434611349036    5.42185002064157
H         -22.39447219483714   14.10932372763341    4.14442861005469
H         -20.13771965899382   13.20238062740332    3.75280560570674
