111
 SCF done       -203.153131682760          0.000976863571
C           0.19125381898916    4.42874247703559    3.53067365221667
C          -0.89509119048542    5.23270571378253    3.31011754213758
C          -1.10823211235305    6.45700189168138    3.97627875763886
N          -1.31251010192271    7.47151190056672    4.47287942795826
C          -1.96320023863145    4.87901427416057    2.45899877886941
N          -2.86983640807220    4.62027911317362    1.80445908756909
C           1.17301556975746    4.60644780483473    4.59432988893275
C           1.80555599262151    3.35172160646203    4.83731397887487
C           2.74184619121647    3.19991994133500    5.81905374274982
C           3.10157959203210    4.31646823280925    6.60709215713740
C           2.48701068126519    5.57761084391315    6.35564489637815
C           1.51529650399842    5.70443001653578    5.33635625884186
C           2.85987909330019    6.68408459138337    7.14539624426050
C           3.79144317006711    6.55274197560086    8.13901416105740
C           4.39457406359431    5.31063830885927    8.38712057851962
C           4.05690634615559    4.21646076195588    7.63766965488225
C           1.29167727821639    2.35028154395320    3.88485318194684
O           1.55384847116192    1.17392302336938    3.82398329157297
C           0.41303161931322    3.12174214478596    2.95023471422064
C           0.08812322078758    2.58564851673577    1.74459532279760
C          -0.34249461460320    3.23834869112031    0.56437404176739
O          -0.26724722659089    4.57745919408831    0.41106813178112
C          -0.64538677531806    4.87572039039824   -0.85454998190770
C          -0.98229632276871    3.71453399189157   -1.53485134652330
C          -0.78329170932150    2.66175067400210   -0.63401010784627
C          -0.98787420156321    1.22373767270820   -0.88152539475230
O          -0.75754902788370    0.34852635837717   -0.08330984652525
O          -1.45558145171010    1.00888981992165   -2.11100023325889
C          -1.69291752564003   -0.34670519863762   -2.46054913484348
C          -0.65148575361720    6.19715332777979   -1.37319542504029
N          -0.37066332097442    7.35492065581171   -0.69210219428707
C          -0.05317553164752    7.49533399464950    0.70721883804865
C           1.39880348960020    7.14667562829729    1.02001938889123
C          -0.48246675813976    8.49112242398863   -1.52730092139764
O          -0.28592510787158    9.62469273718501   -1.14679798423438
C          -0.85931438713377    7.94801260747111   -2.81058615876558
C          -0.95351056793833    6.54077295861397   -2.68793419356482
C          -1.34542889593134    6.01987980036592   -3.97643569052975
O          -1.54489970384575    4.89023327535397   -4.37365511779441
N          -1.48285972244751    7.16151130610839   -4.79648115228695
C          -1.81111836762129    6.98619445181759   -6.19117626650441
C          -0.60034700127282    7.19818833667038   -7.09650249556468
C          -1.19335320928816    8.31905775857783   -4.10963919049945
C          -1.22955545487987    9.68028187358052   -4.52607552589163
C          -1.64165557825288   10.20829356643599   -5.69927339325819
C          -1.67420417509767   11.61380664570520   -6.02070427409078
C          -2.21309737105913   11.99946052941250   -7.25026750046467
C          -2.28384598538804   13.32998134538014   -7.62125448795978
N          -2.79549204413884   13.61088494196301   -8.93884650273468
O          -3.49837759202687   12.76636332167010   -9.45246749359825
O          -2.48308758772657   14.65868059016951   -9.46459730935073
C          -1.82232836508544   14.35647073420250   -6.77491976699600
C          -1.26532854361255   13.95337264190279   -5.55134468007572
C          -1.19003268369794   12.63131135410879   -5.18218286913381
C          -1.96387721102272   15.75635403801262   -7.09389639491462
C          -1.10517354905955   16.71783992577855   -6.68742470605055
C          -1.31683708880282   18.08295863187080   -7.02059370514981
C          -0.46983583923470   19.10012371700267   -6.70278486377635
C          -0.63753981676343   20.50612260211679   -7.03666220901648
C          -1.77456472917094   21.10425856149530   -7.51043589884493
C          -1.88023025799423   22.48146860255612   -7.80071586331457
N          -2.02910175663243   23.58946822588132   -8.06136557521445
C          -3.00827426396837   20.45569171571013   -7.73297885493452
N          -4.04888528307223   20.00859468923183   -7.92132618532273
C           0.60943173713899   21.18909565026155   -6.71503197598159
C           1.49608419151358   20.25712243858543   -6.10298411131275
C           0.84967196653760   18.93656869475916   -6.03049393476191
O           1.30725663446434   17.93071747041392   -5.53013802366000
C           2.74431017611564   20.61800395940600   -5.68312997737592
C           3.17382536601750   21.95142016526273   -5.86392047764702
C           2.29533578282263   22.88841055551860   -6.48131249827732
C           1.00773555341862   22.48661478810136   -6.90341601284229
C           2.73495356670185   24.21613653271229   -6.65955811126664
C           3.98148954900462   24.60178098610382   -6.24790419698435
C           4.84575392281382   23.67841858030900   -5.64040169832971
C           4.45063489821959   22.38174575345673   -5.45237031222162
H           3.20215564512810    2.23897033448846    5.99408279061396
H           1.06932846046778    6.67162070997863    5.16272785697668
H           2.38993699340743    7.63752712987024    6.95370417774362
H           4.06819169121595    7.40567988319378    8.74028308541993
H           5.12780842013189    5.22506670953252    9.17495316755470
H           4.51748846834632    3.25746785287970    7.82431074961153
H           0.25840208549203    1.52014751650772    1.62646539962504
H          -1.31747599185890    3.64978558870070   -2.55104564835970
H          -2.09821262640239   -0.33123366516348   -3.46881737782571
H          -2.40330078687897   -0.79890216513357   -1.76513110662587
H          -0.76084281286660   -0.91527705366265   -2.42857664662252
H          -0.73582217493730    6.87223701986255    1.28876931915801
H          -0.23717711136507    8.54543414962031    0.95265733971884
H           1.61245176787392    6.10701668743377    0.78386012953496
H           1.59041497023601    7.30957315713957    2.07745601251286
H           2.06676829777150    7.78238415260688    0.44392405959886
H          -2.64021841381750    7.64358626320140   -6.46413626299231
H          -2.15260228338902    5.95027474039262   -6.28139669006380
H          -0.17880466826036    8.19265199175973   -6.96906560931774
H          -0.89187930813627    7.07019402435854   -8.13530358374324
H           0.16814870970053    6.46642535036376   -6.86012852113415
H          -0.89520245501873   10.34032564573630   -3.73627323638571
H          -2.00515538037186    9.57048026769054   -6.48951740899679
H          -2.57958291370041   11.25760049118346   -7.94556944288742
H          -0.91401278818683   14.71421979014393   -4.87214129697120
H          -0.75385311977148   12.37919869369658   -4.22877481943900
H          -2.80578094689269   16.04448490820685   -7.71046245710738
H          -0.21332703182185   16.47088949278299   -6.13081110860486
H          -2.21291686946739   18.30243699209105   -7.58727059756811
H           3.39713450790677   19.89297435100468   -5.21996544204294
H           0.36899597046627   23.21820105416657   -7.37208957438051
H           2.06553663212274   24.92328917521828   -7.12694798491384
H           4.30882791829836   25.62102890817433   -6.38815525589068
H           5.82625311144271   23.99991239981026   -5.32245303110655
H           5.11191799763882   21.66655808414713   -4.98538447743725
