127
 SCF done       -241.416873709173          0.000275415327
C           5.34824054401233    2.97951770318363   -3.94426106533490
C           4.96941897327051    2.18095634994816   -4.98571121320710
C           5.56675839856682    0.93935709797775   -5.29234298015199
N           6.01320881813363   -0.07622076519205   -5.58507092825696
C           3.90429724662911    2.48379395023542   -5.86155574092745
N           3.02314168578163    2.66610835242812   -6.57342568800517
C           6.37682286477815    2.69108114930528   -2.95355328438619
C           6.40418529103021    3.73999425076879   -1.98509150819634
C           7.26891336197432    3.72152854291444   -0.92752129789384
C           8.16307213811168    2.63761646954494   -0.78659686041404
C           8.14640194940714    1.58909421029415   -1.75239060939809
C           7.24076654692840    1.63345663339336   -2.83623485504883
C           9.04557598265763    0.51354018217777   -1.60235143538248
C           9.91865913029347    0.47319200854887   -0.54946748784279
C           9.93361777950475    1.50530634445711    0.40097011932781
C           9.07486220494809    2.56459272928709    0.28502634072895
C           5.40592374888822    4.75461831496731   -2.33899471011262
O           5.12743122265540    5.78531065501554   -1.76416572029144
C           4.77144200222579    4.26873786320482   -3.59526446528787
C           3.88294383234714    5.04001546767943   -4.25323691491801
C           3.50467450396656    6.35033215808426   -3.75776764929535
C           4.04178287035980    7.50791539163359   -4.26032728543183
N           5.03390231094488    7.52467075382063   -5.24961165409557
O           5.48788512678595    8.59473563019827   -5.60132984477670
O           5.38427976336907    6.43857375367779   -5.69873612171414
C           3.50923686771674    8.65352869171996   -3.55318726635036
C           2.60915949632854    8.19991171832265   -2.65862506295159
C           2.51934007996161    6.75328022867293   -2.74981119447993
C           1.70192485071879    5.91030954295131   -2.03577243581428
C           1.90124554035765    4.49877264364141   -1.85755157345345
C           1.17997548778581    4.08234858348089   -0.78543805324213
C           0.40658476965864    5.18372800190943   -0.28909388132978
N          -0.49577251824975    5.04664123066308    0.77749604681535
O          -0.54338105616427    3.96321233594805    1.33358361032085
O          -1.17785899984257    6.00922352372731    1.10339904494250
C           0.63635691704276    6.30495399019933   -1.08848924125828
C          -0.13547198704354    7.48309980209274   -1.07365304052407
C          -0.32222010105016    8.28804192250484   -2.16390110199336
C          -1.11139075199736    9.44743561011401   -2.28804495413037
N          -1.90684219392892   10.10845039651082   -1.38396305705150
C          -2.12935641765092    9.81356952889153    0.01386920208766
C          -0.95013820798520   10.24548595142993    0.88133152629201
C          -2.52687611134543   11.24072329825334   -1.96177058305048
O          -3.27426791613397   11.97919050790167   -1.36176614508038
C          -2.05538778028378   11.24848336736273   -3.33274492465681
C          -1.20080961591920   10.15245693633861   -3.49936312612426
C          -0.71361198457497   10.16797037101018   -4.86180389462384
O           0.05396695488873    9.44411451716931   -5.45524253332949
N          -1.33771819579180   11.29930330917462   -5.44419691960051
C          -1.09085870586774   11.59990230332778   -6.83519302835664
C          -2.20494580513409   11.06864262730324   -7.73498045699078
C          -2.14718614652955   11.94761331320835   -4.54597107226327
C          -2.94879112994437   13.10356270861701   -4.69095688169651
C          -3.19750234699406   13.84439918762009   -5.80313985915948
C          -4.01955343941687   15.00007595252465   -5.79801099583374
S          -4.87596138690432   15.50678582694834   -4.37665328133718
C          -5.56765530268254   16.87001669448573   -5.20150189571488
C          -5.17247614823737   16.89727349553271   -6.53315629435041
C          -4.29393628415042   15.85427913731584   -6.86598617447302
C          -3.70445518724289   15.68553654325823   -8.23874302210675
N          -2.21189465168873   15.79473031145684   -8.10710623411848
O          -1.58833668073849   14.76227554410012   -8.17026635902303
O          -1.74582727317099   16.88588757910071   -7.92807706624532
C          -4.18199151760946   16.75468805686690   -9.22195976695052
C          -5.62671756398839   17.14958350568480   -8.95422961822360
C          -5.70377818812667   17.82169909928096   -7.58193906260139
N          -7.12487824910740   18.14797190835009   -7.31927936749813
O          -7.44669417948773   19.31015131098993   -7.37313488661488
O          -7.86964488077938   17.22698775900987   -7.09276204905827
C          -6.49732516038251   17.66099466002098   -4.46267448868367
C          -6.71793234304595   18.99928746958931   -4.53959356798125
C          -7.78594003946826   19.73631275620125   -3.87663654744735
C          -8.86561014256037   19.19545490954928   -3.23358211284089
C          -9.89457755125224   19.96004280219029   -2.64125927074273
N         -10.75680578318536   20.52254236578803   -2.13448281956002
C          -9.11774553164383   17.81530488290258   -3.07493729612945
N          -9.38907404757384   16.71284693971389   -2.90600042046339
C          -7.54543086489948   21.15508097685582   -4.09798157232717
C          -6.37262848754788   21.30400523737180   -4.89290097033930
C          -5.81830186395711   19.98359335881436   -5.20146131124888
O          -4.79437385499502   19.73500638271095   -5.80621473778263
C          -5.90576702927347   22.53020445279268   -5.27189228596205
C          -6.60585519163589   23.68749595922198   -4.86694015401964
C          -7.77758151146505   23.54881021527914   -4.06712188048021
C          -8.23502953246489   22.26631240975494   -3.68849899035511
C          -8.46729980244584   24.71132224891453   -3.66647668772541
C          -8.02398109930066   25.95135935896778   -4.03851029740412
C          -6.87105364862231   26.08654491863041   -4.82659308734159
C          -6.17714583898501   24.97881053502597   -5.23219936559217
H           7.27039139169472    4.52612780346651   -0.20721709520821
H           7.25362170887237    0.82695522024831   -3.55229961966238
H           9.03022364129983   -0.27871113396743   -2.33617576652366
H          10.60314336122199   -0.35480782581509   -0.44293442488640
H          10.62914218971497    1.45683142300760    1.22525804759084
H           9.08211457538023    3.36214516899984    1.01334523723604
H           3.46653831383556    4.73944873861401   -5.20697186009297
H           3.82672047901050    9.66209940678556   -3.73213704588002
H           2.07659801406140    8.79119318189466   -1.94154285888620
H           2.57815665037349    3.90029220741494   -2.43160155739058
H           1.15135201282947    3.09876105964048   -0.35570572248823
H          -0.68653340931743    7.65340711975862   -0.16160777839450
H           0.15537353366318    8.01451097979355   -3.09680681365222
H          -2.35135187491128    8.75209159430580    0.14165257989012
H          -3.01566312967524   10.38828217785794    0.29858909390748
H          -0.02723987963026    9.76542883819421    0.56446533633274
H          -1.14378801340595    9.97546246823918    1.91514721868247
H          -0.81836392572217   11.32319177186867    0.82053332116028
H          -0.15644582843914   11.09088233230639   -7.08875545089508
H          -0.94407842265984   12.67333269659998   -6.96849644260146
H          -2.22649320294983    9.98247639614087   -7.69553123328653
H          -2.01942902149833   11.37616341013174   -8.75993474878423
H          -3.17873759398663   11.44072153801214   -7.42323591698785
H          -3.41635777302754   13.40436792312555   -3.75990232705936
H          -2.76719938395312   13.56703870524588   -6.75054952851978
H          -3.90014631097141   14.67411379827529   -8.61133655358671
H          -4.07766759490472   16.38609862286319  -10.24307337969182
H          -3.54883097315194   17.63836549479185   -9.10586854160920
H          -6.27508617458251   16.26977470786170   -8.96275135226798
H          -5.96811054568521   17.84230083746119   -9.72459443535705
H          -5.14889818260156   18.76922355667626   -7.57858894381764
H          -7.05520247617042   17.09618481810490   -3.72547236336982
H          -5.01544572142554   22.61488063497265   -5.87698682514848
H          -9.12258583647603   22.19625276879397   -3.08016477362705
H          -9.35499383158107   24.60245527107693   -3.06098714512332
H          -8.55984792534911   26.83556384926932   -3.72776750295024
H          -6.53567036076700   27.07271938643708   -5.11058739032432
H          -5.28893951667005   25.07683613648416   -5.83895774247210
