115
 SCF done       -211.181576375216          0.000607015804
C          -1.14741264434149    2.89371963336657    2.60326804529778
C           0.05158394585212    3.48602269256672    2.88827083498873
C           0.88571874173209    3.08314261611769    3.95409387511003
N           1.60101504108990    2.78796876464488    4.80089377331560
C           0.57637043732976    4.61077435119188    2.21825709931408
N           1.04244505776148    5.54918823152645    1.74894629170416
C          -1.80387290619076    1.87437677774927    3.41157242765567
C          -3.18943221460514    1.84031831863591    3.07256605067003
C          -4.06081431447756    0.99436851502061    3.69739207052875
C          -3.57729639588818    0.12123925233661    4.69678581472422
C          -2.19081003270826    0.13797434642676    5.02849113179292
C          -1.31272303893368    1.02898330496469    4.37156932942487
C          -1.71919554551804   -0.74610607519316    6.02052323580202
C          -2.57416207278180   -1.60443010015671    6.65631891158693
C          -3.93882158623368   -1.61926696053438    6.33003240857780
C          -4.42994571169750   -0.77437385469428    5.37213158982460
C          -3.45348341707023    2.79988843523955    1.98879634046128
O          -4.50912775824013    3.09569021213817    1.48461386511355
C          -2.10231304310936    3.30440710597726    1.58148846495029
C          -1.93535813005760    3.89033178701958    0.38126789536245
C          -0.67578363148905    4.14219426057188   -0.28831108995527
C          -0.44435226561761    5.33364310561978   -0.96599079596906
C           0.80566416387553    5.56268391022330   -1.54149999531427
C           1.75203612074080    4.53352809765237   -1.46384764027463
N           1.51145746250307    3.37863256835353   -0.87873571298993
C           0.34877312699708    3.18585313614550   -0.29577990724153
C           1.04011914956892    6.80401569197733   -2.24709537648957
N           2.20734085663174    7.50703096896190   -2.27480199840135
C           3.39820877560948    7.28588031523168   -1.48403806179581
C           4.55987002147712    6.79029159913174   -2.34074665619851
C           2.10146397241832    8.65145576929083   -3.09966300785951
O           3.00887534868123    9.44482530785885   -3.25459409242648
C           0.75312105536273    8.60108617344866   -3.61802403787219
C           0.12156560102230    7.46959539961133   -3.05080979496704
C          -1.23856064598565    7.40860925464757   -3.55523318216471
O          -2.15074439419050    6.64354327172499   -3.33275025430954
N          -1.33359222704360    8.51970107587894   -4.41048259354100
C          -2.54437981280992    8.79570199468590   -5.14950345327610
C          -2.45946661944987    8.28866166509076   -6.58628660636428
C          -0.16259895428928    9.23487829945534   -4.47202668927131
C           0.01563293382516   10.36733343966724   -5.29126191962114
C           1.22019437599926   11.01417343960883   -5.35370025630435
C           1.58387790627950   12.12442275582948   -6.14103044863744
C           0.87073134575166   13.14735484852320   -6.77424561029457
N          -0.50799530916397   13.33055482017480   -6.97079348424156
O          -0.87731806930453   14.44175934895351   -7.30834663405632
O          -1.27257302374983   12.38744686511549   -6.82044011623629
C           1.79083872725164   14.16139558750637   -7.20823856038148
C           3.05269669764792   13.81002472321350   -6.85010235418793
C           3.00567034979866   12.53080251977919   -6.21105661716733
C           4.08514230510272   11.73572231452611   -5.87325255083970
C           4.14493764507199   10.30864802362659   -5.97165271628309
C           5.43898333265220    9.90983740373510   -5.82615321662438
C           6.24749036339694   11.05737627459630   -5.54676743885481
N           7.62316280985447   10.96359275246954   -5.26481369304677
O           8.12531391298267    9.85413839842830   -5.31200360143255
O           8.23918041924498   11.98302206964474   -5.00264146136775
C           5.44714165948019   12.19843399042596   -5.54815840921461
C           5.81060132255582   13.50016021173813   -5.14365505739964
C           4.92356325487300   14.42523462952413   -4.66989866629483
C           5.29423914851156   15.74905457705285   -4.35807785229434
C           4.39747868831896   16.71860307477337   -3.99746558502659
C           4.68775608898246   18.10311858573051   -3.67455048861163
C           5.90533712771023   18.72943007414159   -3.75280447278193
C           6.11859998255747   20.08649337047828   -3.42971858807473
N           6.36395037507707   21.18049466165901   -3.18326613703534
C           7.11171992336679   18.13904099206712   -4.18469119027677
N           8.13173180358767   17.74532908549629   -4.53522802146754
C           3.43674991984474   18.74010039097532   -3.27724194898004
C           2.38296110090774   17.78928719489638   -3.39681999792873
C           2.92826524557358   16.50634869874068   -3.86226582586068
O           2.29879304839841   15.49240426203413   -4.08858518032310
C           1.08665557105945   18.10549291551123   -3.10612685251544
C           0.77891747056293   19.41182222049988   -2.66638916702366
C           1.82812950822093   20.36734736968202   -2.53558920709089
C           3.16015282765009   20.01160796987492   -2.84902824598967
C           1.51097010610518   21.66721919213656   -2.09218575351708
C           0.22014191954929   22.00876267298808   -1.79229561199411
C          -0.81209304722187   21.06759670157335   -1.92251152231158
C          -0.53889734997750   19.79672609955626   -2.35069987072361
H          -5.10672588275637    0.98950899887398    3.42929683634944
H          -0.26649735421782    1.01259738540677    4.63392517944356
H          -0.66869709591356   -0.72868228702347    6.27046156195838
H          -2.20371924107660   -2.27721215429310    7.41493422475440
H          -4.59863967529639   -2.30404574014803    6.84117588227092
H          -5.47931485975183   -0.78143641907022    5.11677037028636
H          -2.83686145832069    4.15455197877862   -0.16149117993462
H          -1.20907569946026    6.09302018066654   -1.00629304793028
H           2.72312634408799    4.61969459150595   -1.92818318992534
H           0.20619923954629    2.21677106979066    0.16544102240999
H           3.16091801271189    6.58485750263589   -0.68199992272751
H           3.67470258670545    8.24874040217431   -1.04278873044107
H           4.30508198473431    5.87033783844564   -2.86257841997525
H           5.42438755115309    6.60568587397653   -1.70990072033208
H           4.82162825324859    7.54599075887892   -3.07688626069240
H          -2.74494490227548    9.86931559499597   -5.13216011482557
H          -3.34674044519545    8.27260253320882   -4.62214262775097
H          -1.66044565941331    8.78800734303544   -7.12875179327329
H          -3.39807723837759    8.48454487827918   -7.09608644269937
H          -2.27476036150864    7.21695280052879   -6.59560133855389
H          -0.81390918884483   10.70007123314130   -5.89417181078960
H           2.01897539990220   10.63084067145860   -4.73266037816838
H           1.48304984517402   15.04349832533605   -7.73728449637394
H           3.95355451776395   14.33860243169136   -7.09314711120189
H           3.32395647606157    9.68173572869398   -6.25984603630306
H           5.82959247970299    8.91258580169044   -5.90002402284492
H           6.86838700200898   13.73688502947199   -5.16390411440722
H           3.89007182904666   14.15027767183960   -4.51888704650617
H           6.34450745628437   15.99921013364554   -4.43788550093460
H           0.30637093686264   17.36654240418548   -3.21194180023260
H           3.92934466618548   20.75920325123786   -2.73946101900413
H           2.30862035616653   22.38893899585177   -1.99475290503449
H          -0.01262228251574   23.00702358356188   -1.45332897124711
H          -1.82472231002210   21.35471451036513   -1.68205458116807
H          -1.32917521776519   19.06783335025624   -2.45411567219733
