101
 SCF done       -191.854855762568          0.000449715231
C           8.35825111554392    7.62941658299212   -3.30250770629662
C           7.93755174365752    6.73139647660649   -4.24581306121665
C           8.80508763938047    5.96661995392648   -5.05425025426011
N           9.46001156521622    5.31819000750113   -5.73798191030277
C           6.58360058655762    6.42466108782460   -4.49641809452918
N           5.49588030460230    6.13218080048347   -4.71980936938665
C           9.73766408424705    7.93268005310957   -2.94891334398116
C           9.74939577383686    8.78994400755699   -1.80889180261423
C          10.91424422229255    9.23957114617800   -1.25737663202230
C          12.14376525340988    8.85127803012517   -1.83374856473173
C          12.14138619030762    7.99559230877612   -2.97411952490833
C          10.92035623362501    7.54251992759067   -3.52177121708988
C          13.37579021508265    7.61410001979637   -3.53913719144189
C          14.55587667994469    8.05568500263293   -3.00593716555786
C          14.55692023260278    8.89859777762205   -1.88407830999073
C          13.37689516098417    9.28761915664137   -1.31052752154744
C           8.36915750256891    9.05262170869920   -1.38196470334318
O           7.98579722492503    9.55393761563423   -0.35046419674167
C           7.51076758101532    8.44594574918691   -2.44916500653172
C           6.19389784668283    8.71450505131404   -2.57600974631106
C           5.49489098532986    9.70657173540254   -1.80838544795423
C           5.81861626158313   11.03664060278720   -1.61212090536308
N           6.93509190328469   11.75228072329429   -2.07939309024626
O           7.78952855973578   11.16741764119401   -2.72956420265128
O           6.97514079235811   12.94337293350141   -1.82790381778947
C           4.74941175733679   11.68482115544746   -0.89099557476360
C           3.76363058295410   10.78216296135363   -0.67829249004946
C           4.16383164641808    9.51277755262508   -1.22749760470664
C           3.52971501389899    8.29242406558117   -1.09352484052599
C           4.19667679206272    7.01957375136198   -1.10994234443052
C           3.35311910826278    6.06840323121177   -0.63432109043909
C           2.08455799244563    6.68079752477419   -0.35616644779921
N           0.99646407553574    5.95049952171712    0.15113026129677
O          -0.02271865644029    6.55190424788667    0.47474974946897
O           1.13410679777110    4.74783211152816    0.26950892428520
C           2.14763133420403    8.03737307549543   -0.67582279338674
C           1.01543791628275    8.89180597279040   -0.72389195780126
C           0.86718355716827   10.03984925179792   -1.42451983772187
C          -0.35872411859070   10.79980833304186   -1.43572346878994
C          -0.65746050733359   11.75447037587361   -2.32619261823185
N          -1.33034493187234   10.47123320318891   -0.46152730977340
N          -2.60446331616162   10.26797840150504   -0.76413783866582
C          -3.22731186608993    9.95605557240757    0.37608749272569
C          -4.53705458573964    9.61846686816753    0.82273703593615
N          -4.75806129948104    9.37228970168783    2.07774996930581
C          -3.82921684942163    9.40468257010684    3.06330071427232
C          -2.47019207462967    9.74666561779433    2.76333358741993
C          -2.27343214450469    9.99202214248465    1.40550624717401
N          -1.09070593204455   10.32680247554006    0.85571235447800
C          -0.02314187504106   10.46988273451121    1.68278888870114
C          -0.25899559471276   10.21907296120757    3.03029627164910
N          -1.40642827307150    9.87065179282170    3.57982749374608
C          -4.28632127505302    9.07749125115445    4.36332652398100
C          -3.49349859508867    9.03690924146350    5.47761180273495
C          -4.00721057080029    8.68047505463267    6.73735025473317
C          -3.25890281589480    8.59897597472682    7.88526563934747
C          -3.72729224030763    8.21160158203657    9.19914834263696
C          -5.02772003002135    7.98443311076178    9.57904963072589
C          -5.41700172395236    7.61975389977147   10.88450771171596
N          -5.80601778858085    7.32144388957291   11.92297541537954
C          -6.16213920614946    8.10118068075766    8.75003212637148
N          -7.14104402349749    8.18134554895658    8.15420601844142
C          -2.56821755319218    8.13136959037698   10.08342592204801
C          -1.41118246686373    8.51700780898162    9.34927531655093
C          -1.79393207973203    8.84852913641756    7.96540361893614
O          -1.05277255412952    9.24442870004629    7.09055329230490
C          -0.17007485652169    8.54256019813442    9.91641305796986
C          -0.02378789783568    8.17155301381282   11.27168725976018
C          -1.17540461698053    7.77963457232549   12.01302622520164
C          -2.44908375423329    7.76612603103907   11.39819420993384
C          -1.01831839529045    7.40774589608189   13.36354554508568
C           0.21578356702956    7.42206793385685   13.95491516642853
C           1.34886718038100    7.80852692426196   13.22387562766037
C           1.23150176709847    8.17554554017959   11.91063029216637
H          10.89722080225688    9.88988471712190   -0.39563534511718
H          10.95004148214673    6.90090496734797   -4.38850672111850
H          13.37000681012531    6.96480160502652   -4.40228530575527
H          15.49589460540852    7.75841911041582   -3.44601587692425
H          15.49757627293476    9.23855983026764   -1.47738153141102
H          13.37153638318816    9.93679443583244   -0.44730329737539
H           5.59518946181661    8.18936086303882   -3.31053909635527
H           4.78373242152545   12.71382289658967   -0.58846091063463
H           2.87160238447298   10.94360215491289   -0.10729541764905
H           5.23297328321492    6.88217221448783   -1.34640992623001
H           3.55975928681047    5.02823764584495   -0.47034766824339
H           0.16091262032748    8.48191466504221   -0.20121595577390
H           1.64945399024425   10.40760352978952   -2.07044799026181
H           0.03023238740756   12.00859501474645   -3.11096940033632
H          -1.60283074342574   12.26513618476766   -2.30140658695323
H          -5.37579417847575    9.55453568650070    0.14772873261540
H           0.93056117657647   10.75854940533844    1.28260070366251
H           0.56510927104966   10.31572327554074    3.72276940930228
H          -5.34044728164827    8.84054633204835    4.43352495120293
H          -2.44362895435295    9.27616330423709    5.39461944222235
H          -5.06208073625669    8.43976170743747    6.78574894845118
H           0.69085616565056    8.84011760239214    9.33623860079450
H          -3.29894095156003    7.46128253867003   11.98766157114014
H          -1.89349515739753    7.11121408805303   13.92286006512823
H           0.32557669625228    7.13520921857204   14.98999728650751
H           2.31500541711890    7.81357980858945   13.70605733081986
H           2.10034680378992    8.47374834141558   11.34211500697746
