88
 SCF done       -167.492644671739          0.000802386503
C           1.67318499388636    0.88693749077317   -0.77219612263304
C           1.92963663592209    2.22146055606884   -0.90751061977998
C           2.53587198133544    2.78722422080681   -2.04894763820389
N           3.02108265868735    3.28696850036429   -2.96054935353674
C           1.72818454981129    3.16088903897150    0.12664978606576
N           1.66238896463334    3.93720509931874    0.96903072162137
C           2.12429529401520   -0.16841824048985   -1.67127228369652
C           2.11738177895609   -1.40707906128499   -0.96214410111249
C           2.53797990706553   -2.56942278443383   -1.54379098294364
C           2.97975600510021   -2.54797609798727   -2.88498231662390
C           2.97001943721626   -1.31747113251715   -3.60514569690062
C           2.53694061378384   -0.12782179286869   -2.97619889292016
C           3.40419472157828   -1.31338604601914   -4.94647058453247
C           3.83095459154109   -2.46603132347597   -5.54772699028745
C           3.84277080828803   -3.67597992743205   -4.83716954716222
C           3.42658231719193   -3.71608511052522   -3.53430884921794
C           1.59152697533782   -1.19404722725119    0.39462549221020
O           1.48577453061051   -1.98842343831381    1.29810825572193
C           1.13492937288394    0.23285770911359    0.40861823366582
C           0.23718691620347    0.63114181215108    1.33649923628920
C          -0.57614339464223    1.79848648110446    1.30457786816355
S          -1.43730589701431    2.35992870881398    2.72825169065007
C          -2.07422859007407    3.61995394848122    1.68448840295706
N          -1.64763462748492    3.51454104678613    0.45819837761437
N          -0.82934018601276    2.52589064165593    0.25341828892206
C          -2.96134348615581    4.62263245111824    2.17735333821261
C          -3.37263061192079    5.66125281455448    1.42743940933949
C          -4.25967678989595    6.71029020837612    1.87724269912959
C          -4.34868469297065    7.89554918571572    1.14730681234841
C          -5.16164943305901    8.93396259268885    1.57121595049762
N          -5.24521625802457   10.10381591866245    0.73158623230269
O          -4.36026191466404   10.27292904991266   -0.07823079248754
O          -6.20014654505296   10.83728253815357    0.87628877005467
C          -5.92852857852780    8.83939506227207    2.74393004468384
C          -5.86140860043635    7.62791731891427    3.44264324248436
C          -5.05492433014543    6.59439125270810    3.02646561709747
C          -6.70313323970710    9.93703243989118    3.28698228430471
C          -7.89725568742211    9.77151120399673    3.88043074871359
C          -8.58308543231463   10.83830067732081    4.53651218120587
S         -10.22065556572113   10.65987719479406    5.14798403523442
C         -10.02115216271108   12.29838923522564    5.77249309570259
N          -8.85322338714857   12.79582430689620    5.48308391694071
N          -8.07353982292809   12.00522278147172    4.81009253467000
C         -11.03352339244949   12.94026050247374    6.53580868063712
C         -10.83225959973721   14.11160552472806    7.18663838797444
C         -11.85258495777505   14.69184739326728    7.98382365104186
C         -11.70159575314118   15.79766340580050    8.76468159849795
C         -12.71013535728966   16.40478194979121    9.61921252353410
C         -14.02859585238972   16.04428616137555    9.71924284254413
C         -14.96048081195334   16.67817580064698   10.56909898897845
N         -15.76983932949607   17.14557384963488   11.23561844377089
C         -14.65893363058851   15.00798540996577    8.99862666257881
N         -15.25040004624933   14.18633073865992    8.45634552034801
C         -12.07366050874820   17.49041768621539   10.35579897445648
C         -10.71373103598873   17.58752320267182    9.94441297216076
C         -10.42875672335812   16.55786965819222    8.93120622485050
O          -9.37381695200079   16.36967320194848    8.36739425459409
C          -9.86321822594056   18.51632714817470   10.47140338279029
C         -10.34130853706730   19.40713461635409   11.45770515887240
C         -11.70042206609367   19.31672055243106   11.87677775981753
C         -12.55822772604595   18.34685202203421   11.31020730102772
C         -12.16665023198389   20.20795885897768   12.86502134260580
C         -11.33195799893883   21.14254344744238   13.41441969587004
C          -9.99391684764772   21.23015670484508   13.00124064649989
C          -9.50928900807574   20.38149962645275   12.04322486816803
H           2.53242527922200   -3.49456430603655   -0.98676673878236
H           2.53053737126866    0.78877545592771   -3.54515233221067
H           3.39656639609204   -0.37932344665642   -5.48850026500239
H           4.16275969967666   -2.45209906858130   -6.57499030223241
H           4.18279192359055   -4.57574569710478   -5.32752793282535
H           3.43302156442509   -4.64431706816979   -2.98199234473571
H           0.06174275928874   -0.05079842777641    2.16107142768152
H          -3.26277102510851    4.50953426904096    3.20837449880070
H          -2.99130972035829    5.74350945302588    0.41926719303153
H          -3.77980025172105    8.02440233318658    0.23795747043374
H          -6.43703857193082    7.52502059787217    4.34962374989279
H          -5.04340341060032    5.67806320826559    3.59506575669921
H          -6.28885453941606   10.93410170326109    3.23598544573745
H          -8.40008032146671    8.81441261580761    3.87377210458259
H         -11.98392704937164   12.42697680351737    6.60725951596239
H          -9.87180824920400   14.60069431063532    7.12020146513802
H         -12.80919845888791   14.18397557139148    7.97540077370107
H          -8.83645089939498   18.56697544996587   10.14069603126728
H         -13.58004795461342   18.30402417058740   11.65193183537038
H         -13.19746161326551   20.13679919013513   13.17976822661177
H         -11.69809392502964   21.81989700227345   14.17127982071602
H          -9.34928048347110   21.97332863762414   13.44613740204007
H          -8.48023774684340   20.44391047515967   11.72092482166700
