102
 SCF done       -183.479661673509          0.000647828278
C           3.08437900818893    4.82058550011571   -5.58441184094933
C           3.46801439875036    5.80538624290307   -6.45690798388566
C           4.29966263183735    5.58555839586671   -7.57593401804455
N           4.96499723056673    5.47754177499793   -8.50513987447583
C           3.14454885310253    7.17564936671649   -6.35790509725337
N           2.95243222015305    8.30798846089939   -6.34108754175545
C           3.52876138588584    3.43415737974244   -5.63845843353472
C           3.07314304776225    2.76979271082961   -4.46542696206635
C           3.35023557494244    1.45463287045260   -4.22509658171334
C           4.10765665887193    0.72744873148484   -5.17001715449888
C           4.56095971241306    1.38264498019556   -6.35149801351787
C           4.26000624301126    2.74629516047373   -6.57082240263311
C           5.31351646234724    0.64710963086204   -7.28965662713500
C           5.60636820067108   -0.67173399578491   -7.07240418472684
C           5.15966164248525   -1.31578361263935   -5.90881189657411
C           4.42646176272528   -0.63118755755235   -4.97778170654975
C           2.30314042789563    3.70694664825294   -3.63176207414523
O           1.81348117905788    3.45725637627854   -2.55000317864446
C           2.24635195386038    4.97675973933525   -4.40235436844425
C           1.47456253722634    6.07940499269874   -4.17168310527420
C           0.64169387999970    6.43254574722369   -3.08533884682439
S          -0.28378639797733    7.91052182270782   -3.25706922648531
C          -0.95371702569759    7.75812902704812   -1.67148201986839
C          -0.46427959573655    6.59732720050603   -1.04680720840814
C           0.42300589966740    5.86548934560264   -1.84226110692029
C          -0.80240203796290    6.18178213329347    0.25247726524291
N          -1.05746458265085    5.81864907677524    1.31103447356537
C          -1.84327358424500    8.75523848814765   -1.20815951860102
C          -2.40639385887908    8.79746818013848    0.03011829993212
C          -3.26802798954043    9.84513512982278    0.43221451168989
N          -3.81022763337284    9.94276832587102    1.69313428465723
C          -3.57943808215087    9.04641308707498    2.80151904229085
C          -2.22647304894062    9.29087532316631    3.46405940783996
C          -4.61687992567129   11.08291551815070    1.83314086884258
O          -5.19254777607812   11.37806153501831    2.86210363024429
C          -4.56882040879655   11.71901287449914    0.53382993467319
C          -3.73231066300995   10.93701322248512   -0.30123324001709
C          -3.68675114181203   11.56784171678528   -1.60070108693588
O          -3.10655335880344   11.27777127054688   -2.62906055625951
N          -4.50255302826151   12.70351533474672   -1.46489804970318
C          -4.75309922798281   13.57530202533628   -2.58706103400456
C          -6.10459753176060   13.28841171675062   -3.23664943844534
C          -5.03722453493629   12.80648348553192   -0.20130446259022
C          -5.88330089847515   13.87191858521336    0.20740973391135
C          -6.38644101187510   13.96220144776895    1.46061015845524
C          -7.21798464409112   15.02937464910755    1.94082747924772
C          -7.84406375050581   15.99669583591670    1.13795434663597
N          -8.57528638903633   16.96777024412215    1.63431314081903
C          -8.75161110960172   16.99646646625162    2.95626223229854
N          -8.19367487751222   16.14382940371601    3.81554175378800
C          -7.44807884981666   15.18705056912696    3.32109276187384
C          -9.55211045488661   18.08985160722820    3.48055381936972
C         -10.37937432478169   17.99739255918616    4.53991688184861
C         -11.05978335079202   19.09375006091800    5.22535139061040
C         -11.11342296106097   20.40018351702149    4.82627329895386
C         -11.78712329639896   21.41761078579228    5.53764456408251
N         -12.31525568079415   22.29015943952030    6.06386304755712
C         -10.53473573476597   20.92655265674576    3.65040430106934
N         -10.10014323689698   21.44080556135443    2.72077860483530
C         -11.67320632241867   18.54478297790775    6.42696628752879
C         -11.50024491044064   17.13054946372563    6.43072642002348
C         -10.77418364380532   16.71755137784836    5.21737590545756
O         -10.62542893211321   15.59342541522732    4.80497625155389
C         -11.98078114357568   16.34828969074211    7.44152278901154
C         -12.65473152690835   16.95599860521400    8.52380811625273
C         -12.82731652846299   18.37095734130398    8.53083835017008
C         -12.32964973626886   19.15412093044811    7.46591281125685
C         -13.50066780127944   18.96784106854485    9.61700387176375
C         -13.97951199655767   18.20596290085025   10.64730065998621
C         -13.80873486593564   16.81303373671509   10.63945979349542
C         -13.16102810653959   16.20154262683738    9.60065123477314
H           2.99523474711768    0.97575817418550   -3.32459149501564
H           4.61313140166170    3.21059732191820   -7.47762160301235
H           5.65640330711702    1.14789752056835   -8.18313101020751
H           6.18445805708110   -1.22619902721083   -7.79633304502174
H           5.39935881424912   -2.35710750701161   -5.75396244802838
H           4.07985688275249   -1.12181049524896   -4.08004219633193
H           1.47550514448503    6.83061493539972   -4.95328051129084
H           0.88954471721888    4.95003056911697   -1.52480732254663
H          -2.06722414274671    9.54597362404226   -1.91331222325373
H          -2.19406548663725    8.02038789013998    0.74773095146621
H          -3.65902717457685    8.01135123283306    2.45872961396267
H          -4.38036726011726    9.24432050553683    3.51932059989050
H          -1.41176207909592    9.12527654161587    2.76295854386090
H          -2.10425222065646    8.61134297370769    4.30238772427254
H          -2.16931513378450   10.31291316964305    3.83083724920994
H          -3.95278324721255   13.37848545946640   -3.30591250041168
H          -4.68653093628613   14.61814367651329   -2.26512308886169
H          -6.13178474268562   12.26300227378504   -3.59671229075217
H          -6.25708717173593   13.95636310761971   -4.07977077255895
H          -6.91769488663389   13.42643844247472   -2.52721638337861
H          -6.10009674497995   14.63710526836764   -0.52367556059121
H          -6.13842230260515   13.19673918689124    2.18494181271960
H          -7.76454909547460   15.98461220962387    0.05830295345815
H          -6.99141116949956   14.51555289926435    4.03728131805950
H          -9.42761418626099   19.02404972072657    2.94984865999000
H         -11.84036190995646   15.27790264102300    7.41788775431040
H         -12.47663386725724   20.22186817928914    7.50123165872402
H         -13.63014474932493   20.04015031729387    9.61791704412128
H         -14.49280930116776   18.67203405670386   11.47493930974326
H         -14.19318291438913   16.22751504471044   11.46114505179575
H         -13.02691573937938   15.12985518121859    9.58919932112826
