108
 SCF done       -196.466757521739          0.000391293653
C           4.45786897480380    6.08331048683359    0.18562557654316
C           4.85927937129022    6.50556639006484    1.42678374659747
C           6.05546728877835    6.08914884168118    2.04736163496506
N           7.00962582849125    5.77612863762210    2.60330278015582
C           4.17919248004682    7.46408364029736    2.20669689073877
N           3.69822158119765    8.27344976701972    2.86475517915809
C           5.23618390760851    5.25554346337117   -0.72433724553603
C           4.60546249335362    5.28306977314817   -2.00070734175046
C           5.12253303724201    4.61743866087617   -3.07443235957091
C           6.30981164585615    3.86861607856723   -2.91299623211727
C           6.93770755140047    3.82286875068810   -1.63440277518530
C           6.38417971731371    4.53114267804762   -0.54306130743962
C           8.11577250714699    3.06367139842993   -1.48352245385051
C           8.65131481236789    2.38416169397038   -2.54376256719089
C           8.03438995403191    2.43270027546294   -3.80272977016378
C           6.88876370676041    3.15942220074906   -3.98351049545830
C           3.38105024746030    6.09947954074581   -1.93299558408748
O           2.64801095582699    6.36573337014701   -2.86215001758123
C           3.24321516546595    6.48696212476540   -0.50574513235073
C           2.14488647662574    6.97354433661592    0.14436874936469
C           0.91893809039771    7.47089681401426   -0.34474854200285
S          -0.28520012589800    7.88905925747737    0.85849188868223
C          -1.36259218158912    8.51263070668988   -0.34476977611610
C          -0.79750950865600    8.37058259074599   -1.62100644009278
C           0.47257158188602    7.78901583614237   -1.61438507015428
C          -1.43523016036607    8.80335379138484   -2.79853589791124
N          -1.92614403306691    9.14973030492394   -3.77459733098185
C          -2.60241710299371    9.10578020316802   -0.03067554478618
C          -3.07076211641587    9.21300747441501    1.24335549010805
C          -4.28184814004546    9.85888678633551    1.57068828713559
N          -4.77769301701548    9.95820192417841    2.85589564525742
C          -4.22601863638900    9.34473033086924    4.03903122715683
C          -4.54022788080112    7.85260954684699    4.10829499260127
C          -5.97991862221090   10.68851450970644    2.90128295209705
O          -6.58553500526388   10.92538822827851    3.92841382754143
C          -6.21645813013468   11.05931051534240    1.52777541911952
C          -5.16624176589082   10.53953313015549    0.73728721507424
C          -5.35883984492424   11.02879637092800   -0.61084732513024
O          -4.70866465877061   10.88499729804096   -1.62478164526322
N          -6.54102104526861   11.79587236695911   -0.54727139261685
C          -7.02100504500418   12.48081193369654   -1.72137356058857
C          -8.04832592220232   11.64391674848907   -2.48130886831662
C          -7.05216650982629   11.83038638890273    0.72178906386933
C          -8.17329076547063   12.54119477589646    1.23721527073468
C          -9.19829159654967   13.15624928316364    0.61273816945609
C         -10.19779046545591   13.88914465779602    1.35629880503716
C         -11.52945232407176   13.95074877597666    1.04514605524715
S         -12.44096990581787   14.81896152445199    2.20520677055227
C         -11.03021985955440   15.14272358307621    3.13086083474173
C          -9.91700026944278   14.60414324339430    2.56973564439951
C          -8.51874339667978   14.83478033365564    3.00651451932216
O          -7.69648574731445   15.37979211118112    2.32473907737795
O          -8.30126552494606   14.36457094842712    4.26139339702229
C          -7.05959439891418   14.04127062914383    4.70565755740050
C          -5.95617216209142   13.86731522331494    3.95863850305173
C          -4.76555943063221   13.34000715565733    4.52850619169547
C          -3.69402450299525   12.92244514972203    3.80023605574643
C          -2.47609862119306   12.31400745712891    4.31350900705799
C          -2.16363158802258   12.08386782607876    5.62718920926307
C          -0.98370130940032   11.44157994493611    6.06039589453679
N          -0.05874341790049   10.90925191724612    6.48295558168983
C          -2.95829643544792   12.43219965797357    6.73979207673494
N          -3.53060666391571   12.68195524787830    7.70361318767813
C          -1.63308395545058   11.97172598990015    3.17273043884730
C          -2.30351660004613   12.36012129864668    1.97779821428835
C          -3.60531248635930   12.95559880525013    2.31568631898456
O          -4.43484360562407   13.36000680734867    1.52654511608072
C          -1.75245665265657   12.16909209002298    0.74313881243190
C          -0.47047083622022   11.58466257429650    0.64602334356939
C           0.21061149929902   11.19380024633700    1.83575010112106
C          -0.39427799791113   11.38860027224546    3.09860810589615
C           1.49398713919822   10.61854717075109    1.72738709112225
C           2.07934860299858   10.44778472565132    0.50196901963591
C           1.40706127584034   10.82841271752275   -0.66919328720752
C           0.15596749800553   11.38025895355336   -0.59930056702698
H           4.63029958926472    4.65967042915908   -4.03474229039385
H           6.87907258554432    4.47514001753527    0.41368268854931
H           8.58852480794593    3.03130741403662   -0.51288356732617
H           9.55410774791460    1.80554591274331   -2.41796125632862
H           8.47092078433060    1.89112111681916   -4.62848805647341
H           6.40901883557729    3.20019828212680   -4.95047663529659
H           2.19799834973796    6.98290115662533    1.22749866174251
H           1.05239012828373    7.60643535375594   -2.50134480812030
H          -3.17679060097062    9.50440723477777   -0.85773411209166
H          -2.48007447925829    8.80112223575898    2.05157321039691
H          -4.68867531281070    9.85740635671300    4.88783561948092
H          -3.14461699714676    9.51125955156040    4.07055762682364
H          -5.61662908385908    7.70087228427681    4.12073203372083
H          -4.11803098825953    7.43088683316088    5.01606224712744
H          -4.12476434562858    7.32794339956088    3.25063138300278
H          -6.14862089147569   12.64127677591158   -2.36170785250129
H          -7.42575640641926   13.45113717933376   -1.42610800858753
H          -7.58037640338424   10.73318010945693   -2.84670206368291
H          -8.42559783152539   12.20444873931744   -3.33221091217622
H          -8.88350417003084   11.36637485756782   -1.84112789396839
H          -8.17469048173910   12.52421658634133    2.32086908406761
H          -9.35050949778770   13.09224293443674   -0.45322992856457
H         -12.02550008121830   13.49603174593574    0.21063638740158
H         -11.09725895716199   15.74161027644857    4.01694395131906
H          -7.08485226410462   13.82614372020502    5.76653999811543
H          -5.95949944413999   14.06321885266352    2.89707462825742
H          -4.75165640557972   13.23429341509115    5.60499941733237
H          -2.28663575837277   12.46216379567760   -0.14835645203245
H           0.14824346831776   11.07842157287057    3.97755778745678
H           2.01028765092126   10.31040466693248    2.62395736607347
H           3.06467128460894   10.01123984137241    0.43309654964695
H           1.88198044721010   10.67920870307482   -1.62769819440860
H          -0.37164872639472   11.66866239162465   -1.49685703038647
