121
 SCF done       -227.488885101241          0.000870252868
C           5.76895563926756    9.94206033077619    2.04935905569077
C           5.07081493677256   10.83753690477264    1.28771781571653
C           5.33190477792011   12.22520246188706    1.26853474672429
N           5.49498406933705   13.35922403173454    1.21148780422502
C           4.06037642649603   10.48251546772341    0.37586026899049
N           3.25645241335261   10.26793132079236   -0.41689609442436
C           6.95942529170291   10.22236303321146    2.83291086154324
C           7.62984487902726    8.99259824146727    3.10960357701960
C           8.79964943829169    8.95949410263179    3.81383445143014
C           9.35667371155842   10.17026940242118    4.28284764686252
C           8.68174649362260   11.39941420107547    4.02345642732549
C           7.47364687641161   11.40603571692425    3.29172555728468
C           9.24454945199425   12.59894645165230    4.50577960734126
C          10.41895776818005   12.58832127856679    5.20756736686169
C          11.08369819090635   11.37872517166301    5.46058202158167
C          10.56428152486220   10.19605076243845    5.00820675721698
C           6.85274387090447    7.87402452882455    2.55521972592022
O           7.12426106142266    6.69772198822171    2.52689522224803
C           5.58334292428584    8.49928206553278    2.06872010634305
C           4.47484286197247    7.75136334845821    1.90941655010423
C           3.11727313419503    8.20930596778983    1.78886934230075
C           2.44103908999744    9.09644714334180    2.61033358585418
N           2.89534906456606    9.73828586346895    3.77444112026404
O           2.06942539528103   10.33907317736159    4.43862581632451
O           4.08407654395520    9.67712355162384    4.06158919564660
C           1.07778437824729    9.22997466245899    2.15402058884659
C           0.94057132150440    8.51378202711923    1.01466689916624
C           2.18492945291227    7.84998136585161    0.72220189172798
C           2.46513947500897    7.11675553540017   -0.41570312680163
C           3.42764435587657    6.08472250544003   -0.59159115217146
C           3.19113967393869    5.47123645192180   -1.78676041846795
C           2.11277891748109    6.12803023236983   -2.46046416226794
N           1.74612241829714    5.73302445642015   -3.75811205001250
O           2.50495337427957    4.97395145480766   -4.33807764538837
O           0.70262163814840    6.14538980790391   -4.23819602966949
C           1.66957429478908    7.19657904781341   -1.66969373642863
C           0.94506755860091    8.36428204822897   -1.96372516891887
C           0.01169656314585    8.56273704248303   -2.95324668762872
C          -0.57547361508797    9.77638725339173   -3.34239793644827
N          -0.20713280628993   11.07560972758888   -3.06843409163413
C           0.86988605017505   11.56641858793993   -2.23722059601053
C           0.41180893770879   11.77833994351001   -0.79671564793087
C          -1.02838661354328   12.00025894048624   -3.72285571329083
O          -0.88610262323234   13.20660563560170   -3.64581947258867
C          -1.98903024194112   11.19574249035347   -4.45386955535516
C          -1.68800567764976    9.85356778330739   -4.20795874548651
C          -2.66011067608471    9.03038899051863   -4.90971817698369
O          -2.83699331740173    7.83906201752170   -4.96461053315604
N          -3.48706079418160    9.97285998790535   -5.56902317497369
C          -4.55755049026279    9.54610153890407   -6.43783454889561
C          -4.15560577271905    9.62157057916446   -7.90845390077583
C          -3.10811575563084   11.26196210626825   -5.31306609291239
C          -3.74907875904636   12.40573596098743   -5.81388391288817
C          -3.30340574264284   13.66362778520821   -5.49841692020572
C          -3.88220499158476   14.85749270421346   -5.93914335810198
S          -5.26816057871088   14.91409378371270   -6.97749129480616
C          -5.28763593757046   16.64732173194964   -6.99254816596872
C          -4.22597203800707   17.17308567581219   -6.19900853274338
C          -3.42939313466891   16.15815948632733   -5.60196581186361
C          -2.34154685201195   16.48981412914079   -4.78522592778895
C          -2.05057958229249   17.82070743517045   -4.56677001524499
C          -0.95685990156074   18.18544167324862   -3.74503927169961
N          -0.07138261216779   18.47348145416250   -3.07860449140273
C          -2.84426761375055   18.83967430271082   -5.16275267544184
C          -2.52035504713610   20.19659681195295   -4.91935138775809
N          -2.26107004911121   21.29494695392136   -4.72625763854728
C          -3.91859953030930   18.52068456550899   -5.96886141269577
C          -6.19873600859301   17.46107130484752   -7.67100974979036
C          -7.27052462835013   17.13411560510180   -8.46663109238713
C          -8.15530625577711   18.07897374534487   -9.12133999682596
C          -8.08855932712098   19.44930422884388   -9.07482443354673
C          -8.98872485443004   20.30613110868140   -9.74320011703567
N          -9.68799212027375   21.05816867577528  -10.25579599926469
C          -7.12940812223241   20.20171488379269   -8.36660843790500
N          -6.37560580685106   20.87225406985009   -7.81638271918002
C          -9.15288934714104   17.30747371384321   -9.85618908706717
C          -8.88903240976086   15.92031573260927   -9.66101733421933
C          -7.71485551011486   15.77326221713857   -8.79493864916575
O          -7.20747545843646   14.72719455969368   -8.42089833863654
C          -9.66143932838542   14.94867761908121  -10.22970108644302
C         -10.75754698905990   15.32656656306653  -11.03686869370571
C         -11.02950180363768   16.71088222048174  -11.23759041427645
C         -10.21039071685782   17.69431841225881  -10.63510687229336
C         -12.12535358921434   17.07731001002152  -12.04413254447446
C         -12.91627870859563   16.12325335117102  -12.62566973870334
C         -12.64762401425831   14.76100029620836  -12.42748839481806
C         -11.59080610669944   14.37072347696741  -11.64973695837263
H           9.29461096280548    8.02057483221323    4.01306848257328
H           6.97217762440355   12.34625487315160    3.12345853408877
H           8.72974194655784   13.52716821041039    4.30653147179535
H          10.84266298523757   13.51204995090808    5.57198432743025
H          12.00899187176570   11.38883798230454    6.01686652510486
H          11.07182536197198    9.26236263311081    5.20139000442123
H           4.62378223452998    6.67707379140232    1.94796923019075
H           0.33904391033592    9.81230987477489    2.66994273211485
H           0.03594550254912    8.37030085536357    0.45623694308637
H           4.15624654230428    5.77396615012827    0.12898649889666
H           3.71049807478323    4.62532367858473   -2.19732045531001
H           1.18091082377803    9.18490693129207   -1.30313706643051
H          -0.36042401503199    7.70784133586850   -3.50460276701255
H           1.16788222734958   12.53136070448256   -2.65792805628220
H           1.71930220892060   10.88572863862523   -2.28915462408794
H          -0.33521698315499   12.56715128643899   -0.75605649045551
H           1.26217113113712   12.06959099641960   -0.18780359190325
H          -0.01807821363137   10.87080591351376   -0.37963184183082
H          -5.44729530143344   10.15171530005946   -6.24532110815887
H          -4.76960681801106    8.50781259242673   -6.16828830546270
H          -3.90556391721041   10.64087698047163   -8.19430936030651
H          -4.97624194894062    9.27573247625544   -8.53030414699009
H          -3.29152169434524    8.98741883934848   -8.09006195851304
H          -4.61177765641759   12.28790594072794   -6.45431744700191
H          -2.43656966409197   13.75226434446216   -4.85740728605693
H          -1.73384949097155   15.72370838843598   -4.32830890909785
H          -4.49918884525672   19.32010973582815   -6.40446761115172
H          -6.01685500338786   18.51767203367669   -7.53565945072794
H          -9.43949736541032   13.90457481157807  -10.06585411838510
H         -10.44488553834262   18.73232919225359  -10.80812823788660
H         -12.32851019949547   18.12740208671060  -12.19399512474899
H         -13.75360165434110   16.41416247488191  -13.24178853396837
H         -13.28165176727402   14.02198312760348  -12.89371160947904
H         -11.37913971515892   13.32306805119732  -11.49363472519334
