105
 SCF done       -204.334856535562          0.000970699059
C          -1.93316476533859    0.73127380530452   -0.05367238011464
C          -1.78645503638716    0.14878379404945   -1.28511886086998
C          -2.23772329950034   -1.15001860818045   -1.60510579896154
N          -2.58582800001672   -2.19200323384741   -1.93680235121579
C          -1.18374069442563    0.75183189217450   -2.40873633672880
N          -0.70194752778059    1.17672374457367   -3.36060225030669
C          -2.52782001526260    0.10215834551029    1.11844596823680
C          -2.53874321333894    1.04078236423604    2.19084109948054
C          -3.01457894113736    0.71938035080393    3.42934802496041
C          -3.50211691374596   -0.58606667282215    3.66078199585619
C          -3.50412288845882   -1.52922656578960    2.59190907461937
C          -3.01256587665859   -1.16449795665124    1.31811856638925
C          -3.99527990188429   -2.82863401183996    2.83374188313815
C          -4.45670974031003   -3.18284081815536    4.07227334873464
C          -4.44977961051789   -2.25501172634002    5.12472041732503
C          -3.98361392814806   -0.98393364480798    4.92325664467488
C          -1.96771819891041    2.31281814498300    1.73278494577068
O          -1.97880605737158    3.37628922585498    2.31283407640844
C          -1.48827654632250    2.05946113909079    0.34064563671325
C          -0.82613788953320    2.96107794747705   -0.43146778091219
C          -0.20185639956482    4.14810572122529    0.03972781925650
S          -0.01074234748125    5.51592076167494   -1.00542906772168
C           0.81152992073179    6.44125321365411    0.21508057232812
C           0.96358426838119    5.68171532228440    1.37203073077979
C           0.41619906442716    4.39412146942224    1.26132303701935
O           0.55089353028781    3.39533280758623    2.16246488171702
C           1.01479319306828    3.52720907183290    3.41391911872909
O           1.02911675466652    2.56704353205488    4.13015293993040
C           1.59233751116376    4.84483983452169    3.91328688971250
O           1.96947836057049    4.96168998415547    5.04462273838818
S           1.83002862482363    6.20393706002582    2.79617521060912
C           1.20763228431618    7.79759016492474    0.04025444945552
N           1.66112191366132    8.35446071899480   -1.12755393958021
C           1.83367709278625    7.72176544446201   -2.41292674366134
C           0.61784308109355    7.93829614345643   -3.30955381218907
C           2.02898664465277    9.71369933660074   -0.95414914332699
O           2.51685006404131   10.38291376145502   -1.83416953293813
C           1.70458779191158    9.98734823732037    0.42667908215845
C           1.22405065518250    8.79150161554450    1.01524910305290
C           0.83319340285899    9.10315603610113    2.37234113844178
O           0.30385710603608    8.43440427203221    3.23593662911749
N           1.17584481750034   10.45756684256261    2.53816725094874
C           0.89290015530863   11.10983697898446    3.79514475524764
C           2.03176747027234   10.91910102183127    4.79460171963514
C           1.68923448509944   10.99957123777857    1.38312067090234
C           2.12754718681939   12.32791891027361    1.13157257594762
C           2.54664232401404   13.25135529736224    2.03210997827790
C           3.02479169288950   14.54500103019401    1.69517312615839
S           3.75435744332197   15.49611367492974    2.96786235064106
C           4.12586701920800   16.81448302153385    1.88637781613187
C           3.65594766896311   16.50568735023662    0.61393208060363
C           3.03480303960617   15.25107957970812    0.49513391651604
C           2.52249937546741   15.07336189529178   -0.87196027807263
O           1.84285554882686   14.17839949822292   -1.30632976170845
C           2.98846695250936   16.29181295135610   -1.65739792986071
C           3.61273501660598   17.24578651851092   -0.65284970619888
O           3.96043290108088   18.38130458648326   -0.85584258906874
C           4.84060063041946   17.99740976504465    2.17192877007243
C           5.23949404887673   18.48596990095877    3.38042585572754
C           5.98139189468037   19.71760359303347    3.59795654452358
C           6.74941795012593   20.37046457306337    2.67337700683056
C           7.45902973279065   21.55975560882662    2.94418923573814
N           8.04734530080132   22.53063876783582    3.11106175718265
C           7.00304481915507   19.89964967704384    1.36548144046074
N           7.29969283625037   19.54692967111528    0.31498864228843
C           5.85005348202405   20.06182753436593    5.00803491943870
C           5.17004779169739   18.99861130825495    5.67223232877779
C           4.82455801932465   17.95811830466033    4.69511151968385
O           4.28458934982505   16.89004406573161    4.91974188002577
C           4.91681817188687   19.03140361988494    7.01407535215345
C           5.33212008687025   20.15334565028835    7.76503325709111
C           6.00642492614358   21.22314274652842    7.10721265122507
C           6.26034024798796   21.15863435718857    5.71765492692099
C           6.41225259583106   22.33889731251455    7.86683833253265
C           6.16440662117607   22.39782479376649    9.21151830508513
C           5.50006410164638   21.34480247198270    9.85797693208219
C           5.09362095107610   20.24595349630686    9.15049580517743
H          -3.00383148731024    1.44800801881115    4.22595132739358
H          -3.02525323255639   -1.90283106882458    0.53217999941953
H          -3.99682522402804   -3.54004007116903    2.02098930293593
H          -4.82820111272662   -4.18118997219213    4.24838939758176
H          -4.81512523625672   -2.55275821051707    6.09608108787927
H          -3.97481534769240   -0.26559862502575    5.72960898095812
H          -0.74526474114959    2.79628256248451   -1.49816721853069
H           2.03407682767077    6.65764984357729   -2.27333366429927
H           2.70610570716158    8.19454213496490   -2.87380946175238
H          -0.28134053673280    7.53479688172004   -2.85003473338122
H           0.77389693318693    7.44471418595840   -4.26394962934623
H           0.47769985865845    9.00188622117556   -3.48400661537197
H          -0.00874080325751   10.63568629572352    4.19527842416300
H           0.68485816975294   12.16550705828000    3.61193438710815
H           2.13706570679409    9.86285677460462    5.02865750813788
H           1.81237739221210   11.45816473265629    5.71195000441453
H           2.97738916671963   11.27664857255306    4.39251360550770
H           2.16860501201252   12.56751476025561    0.07594508584973
H           2.60948402941537   13.01932724538604    3.08517909914484
H           2.17113503448427   16.75647818015626   -2.21124484830850
H           3.73469060495191   15.98918272809514   -2.39651388591665
H           5.05391895892754   18.58438190339362    1.28444693584504
H           4.40391793568988   18.21243299823882    7.49621917798385
H           6.76772112396010   21.98552054331889    5.24641555771139
H           6.92468301807842   23.14644140678771    7.36511769369603
H           6.47918267672549   23.25690750156809    9.78456328912283
H           5.31181635879665   21.40862435413700   10.91914638528336
H           4.58209307791751   19.43203340523471    9.64303334331878
