110
 SCF done       -200.083368805196          0.000546720836
C           1.85136835464410    6.32989072342695    3.15653101702829
C           0.80531802011751    6.96866573310203    2.55861356246858
C           0.36610252114073    8.26134781358569    2.92215176185463
N          -0.03875373415576    9.30914845557847    3.15833983681924
C           0.01700411877262    6.49196071808690    1.49165983135299
N          -0.72579862449454    6.19124327177746    0.66952845373594
C           2.67508535616900    6.89108675410487    4.22512483474249
C           3.84296054836679    6.08930585466233    4.39471477824143
C           4.78605374516555    6.37091140522972    5.34279771603795
C           4.59965899762851    7.48815830784259    6.18469773136027
C           3.43494573660814    8.29349435732586    6.02691957915266
C           2.47703236939180    7.97695849584817    5.03649231288032
C           3.25550151796490    9.39886772165508    6.88377286905582
C           4.17830823520295    9.69345424812230    7.84996521361255
C           5.32370504642148    8.89761442450036    8.00550014685071
C           5.53044537969266    7.81907784601254    7.18972302735573
C           3.79252488864267    4.96861254326634    3.45644409695797
O           4.63156894042444    4.11998151851944    3.23575601030842
C           2.44918633909170    5.05303334138754    2.79813686282572
C           2.07395308541461    3.98298794536573    2.07672989381735
C           0.85329557307311    3.63291031760778    1.38123885902265
C          -0.41973854170539    3.66996751927179    1.93979553647688
C          -0.88225512965285    4.14296644013063    3.26248953422242
O          -0.24626651591001    4.60215758109241    4.17153674446027
O          -2.22137923608851    3.97408604956157    3.31733820758160
C          -2.73097364135325    3.43622879266357    2.10739435032085
C          -1.53450934743172    3.21681417935897    1.24008400194547
C          -1.42076323064293    2.70025868363175   -0.03442119323737
C          -0.15835619277479    2.65044585332805   -0.60641362609669
C           0.96397396624625    3.10501661306035    0.07828274225157
C           2.30283447942199    3.14620911904350   -0.49965185912102
N           3.00146042108270    2.06110600610821   -0.95590579623541
C           2.51669331989461    0.70892907179354   -1.08655088497336
C           2.19330230404504    0.37256339904896   -2.54005475447131
C           4.34564086348183    2.39343415890154   -1.24050560405472
O           5.17044337908013    1.56573599930899   -1.58527083823087
C           4.42617997611683    3.80803576531515   -0.98927990560261
C           3.14488872776091    4.23683475926957   -0.52571790526149
C           3.22203479144908    5.65922309225388   -0.27514550834319
O           2.41652588436203    6.46157091950443    0.14941150199281
N           4.53936248234668    6.00277931309262   -0.62479331242951
C           4.96729546570632    7.37968033926511   -0.53721982363303
C           5.30618160745861    7.77709642842361    0.89657409336420
C           5.27244904180433    4.90889576053949   -1.00492685019623
C           6.67390294989355    4.93561983955669   -1.29221147469667
C           7.35792995723153    3.80157674367253   -1.49865064867487
C           8.79674794323025    3.71545988788960   -1.73256279175174
C           9.36185085191924    4.15519705891123   -2.92053560146583
C           8.74136404802670    4.83618304386892   -4.07952515240691
O           7.60910273788352    5.19304985530021   -4.23872812743038
O           9.71218408878365    5.03423932645368   -5.00635434968221
C          10.96569262295612    4.53547229777196   -4.56852594878984
C          10.71354719387783    3.97455284251034   -3.20687618618013
C          11.55270148969046    3.35767844861832   -2.29992092400481
C          11.01941865034932    2.95116202047389   -1.08906434622227
C           9.66262318903474    3.12102966909187   -0.77884883413135
C           9.08780441436867    2.86801839673639    0.51762725553089
C           9.55195990698173    2.30390708959689    1.66297441875547
C           8.81163353438446    2.38670393225100    2.92353813881292
C           7.87817867689719    3.33380271565793    3.24750309951635
C           7.32227646479319    3.47798704235037    4.53688049002386
N           6.89727445048925    3.67699528185593    5.58418858625243
C           7.45971917434271    4.37941457309532    2.39889055505563
N           7.14189127371804    5.29257507314663    1.77945106450046
C           9.37288829352379    1.40860688137342    3.84140964439351
C          10.52697078194656    0.83816655564167    3.23505797769122
C          10.72682958806944    1.41639024915661    1.89568668195681
O          11.65500838596651    1.17577364713576    1.15362079946724
C          11.28712571615583   -0.10002243747674    3.87320839779792
C          10.91565070143889   -0.52014860664474    5.16943875415091
C           9.75150851679777    0.03498148911430    5.77666631216539
C           8.98461250154550    1.00447279228615    5.09163010805279
C           9.38944837131855   -0.39644042013989    7.06926724796701
C          10.14111405170086   -1.32713160013044    7.73307953742665
C          11.28741853696155   -1.87199945124516    7.13488806519769
C          11.66607678676406   -1.47742467656179    5.88054676181767
H           5.65016868201480    5.73430976859439    5.46344243165929
H           1.59602041840568    8.59356674147992    4.95836396708327
H           2.37248747227185   10.00877482257382    6.76127892674154
H           4.03033339732522   10.54130083827206    8.50225717248454
H           6.03938721891807    9.14358977461089    8.77602855863599
H           6.40740244215657    7.19862864766577    7.30290623570962
H           2.85566669314155    3.22737093334239    2.00043157152431
H          -3.42523904625647    4.16064721969709    1.66699139649432
H          -3.27779469452461    2.51491122724433    2.33538720064097
H          -2.28685077208493    2.35906140926260   -0.57898055540999
H          -0.04684059368747    2.28150786139086   -1.61448405951302
H           1.63608212786807    0.58918347063060   -0.45053672425594
H           3.31067081698851    0.04276192336227   -0.73487871108248
H           1.44215811518023    1.05022830508013   -2.93931252734132
H           1.82138787717486   -0.64584972081219   -2.61061714709435
H           3.09319908425066    0.45962654323791   -3.14330145251944
H           4.13105017232088    7.99039978119953   -0.89322669032454
H           5.81987340924499    7.53212071994329   -1.20016106235605
H           4.41670576773410    7.70424215262503    1.51836956603426
H           5.66140590590551    8.80376529062205    0.91995297745201
H           6.07082261009529    7.12248279679609    1.30363477639929
H           7.18307098117705    5.88714235417823   -1.27550405716304
H           6.83864920202627    2.84848774522193   -1.49042023710105
H          11.68919922063203    5.35859704368355   -4.56002034816432
H          11.31205300018009    3.77586523997899   -5.27852063215470
H          12.59777868058171    3.20477640031076   -2.51853359772281
H          11.66388481729248    2.48280953514885   -0.36325987294268
H           8.07845036600800    3.26135626273296    0.58546265210749
H          12.16222835101378   -0.51475337301392    3.39521140125358
H           8.10207085349048    1.40001520642479    5.56925371945358
H           8.50771890469838    0.02783645108656    7.52657968859325
H           9.85708973151744   -1.64869306891253    8.72385865534366
H          11.86842878722742   -2.60590542568444    7.67301191171216
H          12.54746285854415   -1.89357207910427    5.41488810933489
