100
 SCF done       -185.925722916978          0.000318430518
C           2.64016181265563    3.38661399379675    1.05970690041488
C           2.03246967285912    3.06816455068877    2.24311253540945
C           2.40009688151561    3.61618807162819    3.48970591234892
N           2.63550400320125    4.04261583520565    4.52842460112101
C           0.98324256420665    2.13431914888198    2.35253253693474
N           0.12996895520812    1.37781870765400    2.48867972822594
C           3.83999509075563    4.19254294288094    0.90531094270190
C           4.42603736828619    3.90102431660368   -0.36269716775919
C           5.58452306930006    4.49954932601260   -0.76885868127562
C           6.20982638995374    5.43786606285593    0.08255778138670
C           5.61626575558860    5.74762656077128    1.34178459291825
C           4.42146391907555    5.10807022994994    1.74116072268404
C           6.24484533240055    6.69641763736383    2.17396798443502
C           7.40580197916970    7.30765598023336    1.78571973161835
C           7.99084888503701    7.00004392018917    0.54801202464809
C           7.40603432403659    6.08517127491283   -0.28512953682772
C           3.58160095040516    2.93624929881201   -1.08491776903901
O           3.77998742983243    2.40414363438852   -2.14868021643592
C           2.34754530833776    2.80446048100601   -0.23999002223082
C           1.20369369250794    2.35270178751215   -0.79487310123203
C          -0.13524722472202    2.51452324706861   -0.29488520144831
C          -1.16563978208012    1.62193702015579   -0.54765354213969
C          -1.04461456612152    0.42190288134096   -1.25423950453934
N          -0.93184395254154   -0.55397667166877   -1.84627482224789
S          -2.66862638089440    2.10823591579422    0.15259223707396
C          -1.94568119918739    3.53989473875830    0.79298423145883
C          -0.60286464916911    3.62856168460459    0.46310580859943
C           0.15912407928678    4.78684221755291    0.67821316858967
N           0.76819314386198    5.75076155645299    0.81077554511468
C          -2.77178649714582    4.48562347395029    1.49106083343344
N          -2.46811768580497    5.13502127189549    2.65882088689895
C          -1.37230345703330    4.85319087474765    3.56368515907648
C          -0.48886605731843    6.07108173195410    3.80883083188838
C          -3.51793122998513    6.00582368473892    3.04379959118162
O          -3.51169128602358    6.64736310528414    4.07176852611179
C          -4.49481082667258    5.88442378671446    1.98619497530474
C          -4.01799098635752    4.90815498072929    1.07037009674792
C          -4.97036741664567    4.79532370843017   -0.01388606776914
O          -4.99490929928557    4.09068605112176   -0.99978924955248
N          -5.97197031787014    5.72414209569452    0.31968181860572
C          -7.10618041156580    5.93745497104817   -0.54726429098728
C          -6.90936563200646    7.15121161958629   -1.45229151139162
C          -5.69619509705288    6.38482766825378    1.49688111918199
C          -6.52242758760008    7.40601036744844    2.03590142865337
C          -6.26825410311939    8.01328877288978    3.21949329012118
C          -7.06159454742129    9.06890261070611    3.73754708431137
S          -8.38749184121384    9.83639221874362    2.85470950420550
C          -8.55290723571382   10.87005209050955    4.26449656829669
N          -7.69139614502350   10.57735429130503    5.20045504158548
N          -6.88250075494176    9.60672802804822    4.91186420921583
C          -9.50593266032470   11.92555957688996    4.32067341197381
C          -9.66030170168523   12.68610584213240    5.42753934136521
C         -10.54767979464182   13.79280054206980    5.56292457873939
C         -10.89370686762896   14.70143638173389    4.61095122326512
C         -11.79332127543519   15.82714471739956    4.82303117746845
C         -12.79252675661212   15.88777460476767    5.75594615891610
C         -13.66670949338373   16.98567935298835    5.90131991948706
N         -14.39961362788869   17.85346459074123    6.06535786815930
C         -13.10970388571248   14.84460277235538    6.65274928552617
N         -13.43413085098320   14.02690900068196    7.39003953909361
C         -11.50297734230373   16.82789896880825    3.80732425590960
C         -10.54354035676274   16.28698080687548    2.90429422851116
C         -10.19337797536729   14.91484691457070    3.31012399121838
O          -9.46369728536563   14.15346810186699    2.71491368174383
C         -10.07275133140120   17.00166220143274    1.84023475421913
C         -10.54560166409196   18.31615897721450    1.63055982825004
C         -11.50125168339800   18.86663508090610    2.53360881902785
C         -11.97324035314604   18.10166397422273    3.62451472445259
C         -11.96093273543872   20.18167947573802    2.31676689241023
C         -11.50093716669186   20.91859949631486    1.25955532061705
C         -10.56068196827201   20.37558154096247    0.37100899440771
C         -10.09392412396284   19.10190002678373    0.55193341152776
H           6.01714701915564    4.26323333451427   -1.72961700297789
H           3.98021375667111    5.37028787392033    2.68995725738659
H           5.79153862282689    6.92813396835156    3.12633683664809
H           7.88031931419798    8.03208131748977    2.43034676121661
H           8.90655681214530    7.49260251845713    0.25735869811893
H           7.85152820056948    5.84577027745886   -1.23949624485074
H           1.29826140165568    1.86153329540550   -1.75822522145781
H          -0.79330905111132    4.02162266626655    3.15718272606896
H          -1.80748863462852    4.53580620365185    4.51791866781720
H          -0.06053742444466    6.43878988044483    2.87978304074311
H           0.31877927412056    5.79403108314215    4.48102567408846
H          -1.07475198775469    6.86210277671853    4.26746873759889
H          -8.01214886121655    6.04073806902541    0.05560971014197
H          -7.19188040042394    5.03597010275193   -1.16049770760825
H          -6.77315270860345    8.05881990192542   -0.86850612208260
H          -7.77694411977602    7.27483278466360   -2.09427466119236
H          -6.03206213213800    7.00771608611855   -2.07802020478715
H          -7.38802329502985    7.70834837338611    1.46145458975521
H          -5.42526760307657    7.72006370603282    3.83192599739367
H         -10.10863445699278   12.07986387092401    3.44009135981474
H          -9.09807140193234   12.40948706087517    6.31041750076436
H         -10.91636847052077   13.95690043009445    6.56972155922177
H          -9.34629622676213   16.56966128532478    1.16800074982188
H         -12.68946414139840   18.54701878675264    4.29692265544411
H         -12.68576924802680   20.59493859516774    3.00259028647336
H         -11.85911887083107   21.92480962128871    1.10203199376787
H         -10.20769714355851   20.97171782428317   -0.45707863541899
H          -9.36981175957462   18.67858160282628   -0.12868767366054
