104
 SCF done       -203.539567860326          0.000869313648
C          -2.46478773261079    6.68813135988206    7.66344412869561
C          -3.57738923227028    6.32986807079296    6.94938149564205
C          -4.82941736235434    6.05630048075247    7.54000680416143
N          -5.86232435847120    5.82657377330004    7.98286817724306
C          -3.56776165509381    6.10709182428941    5.55840444862447
N          -3.57354614216370    5.89048532870953    4.43097518408751
C          -2.36328012640222    6.70258885168886    9.11820435694030
C          -0.98646516845989    6.60910883189193    9.48027021244421
C          -0.59028496724537    6.56607866071166   10.78650960003213
C          -1.56706723574843    6.63092113557592   11.80512457380510
C          -2.94288527111798    6.74526208852193   11.44936018952539
C          -3.32578115515578    6.77726461275768   10.08881063986252
C          -3.90567324355623    6.82177753554286   12.47613266784963
C          -3.53032484629447    6.78412965708822   13.79153451817137
C          -2.17635518953587    6.66907315409756   14.14080840143283
C          -1.21570718605403    6.59337683400092   13.16899468545052
C          -0.16102854735360    6.59682754024914    8.26312477208615
O           1.03587772937508    6.46741350199507    8.16234498442134
C          -1.12015392507643    6.85200163711429    7.14161613183040
C          -0.63215119640352    7.27114849961725    5.94868372973061
C          -1.33277765668754    7.92123419435080    4.89749865598356
S          -0.68980058385039    7.92205519620277    3.27455950033952
C          -2.00148675806156    8.88824242296644    2.65850427659246
C          -2.89560331570617    9.20404055977135    3.71390811140475
C          -2.48642694895277    8.65340046309868    4.94847535770531
C          -4.10331826622570    9.94936242159181    3.54884880451445
O          -4.51810278948090   10.46172887212338    2.52645623011629
C          -4.97563148380174   10.10918330446198    4.82564758214027
F          -5.32156560441665    8.92925577142805    5.36990634715462
F          -4.33263195634366   10.79693922042019    5.78977995494368
F          -6.09807660538977   10.76512764386052    4.56156692677461
C          -2.00412197335492    9.22501040622597    1.29910634630979
S          -3.16617439770299   10.27160270364142    0.50155625599866
C          -2.35578677830831   10.19781510429460   -1.03809408089028
C          -1.23249010463784    9.35818864782822   -0.96178723475278
C          -1.05514896687031    8.82345268771197    0.34265196840508
N           0.03337614935741    8.01877838510992    0.32651255237458
C           0.55166916558897    8.01453064425524   -0.95110979484444
C           1.68456633717225    7.25913662993846   -1.28650817676763
N           2.61065976651169    6.64295726726541   -1.56636904616869
C          -0.20177977222013    8.83082163178481   -1.76991588843111
C          -2.88792357785495   10.94742358132639   -2.10022403757216
C          -2.30055742694219   11.12676955727456   -3.31976574990175
C          -2.84880406803692   11.90187526095491   -4.36367373614883
C          -2.22711121979023   12.19587101431768   -5.56473257669218
C          -3.08135926506131   13.00799209000467   -6.35357331382072
C          -4.31349125855174   13.19208619281279   -5.55899365953127
C          -4.15971657229475   12.54039686273683   -4.37901830277095
C          -5.45598253952206   13.91212182637269   -5.92831483426226
N          -6.41039598302537   14.49337131017703   -6.19411036698619
C          -2.82906297162123   13.54744823136491   -7.59754843392319
C          -3.69471745680717   14.35157273498691   -8.38713037619060
C          -3.05336832337663   14.70231642003519   -9.56009109993883
C          -1.72292929746255   14.10660589121841   -9.53266698379677
C          -1.58077260448511   13.41326464019110   -8.37344316869629
C          -0.43431855546102   12.70657694863906   -7.99307191589914
N           0.51867859391800   12.13433565085390   -7.70277022348155
C          -3.60358978262372   15.49515676879169  -10.59349930336545
C          -2.94707549176057   15.86054721281048  -11.73132449979177
C          -3.56895142458140   16.65101971621755  -12.72158179842093
C          -2.96671208267019   17.07171398404682  -13.87531202019466
C          -3.56378597863755   17.87572190456151  -14.92550848895919
C          -4.86602063040257   18.30053465471158  -14.99952520516203
C          -5.38655903313767   19.07463128809702  -16.05824765035945
N          -5.87610179021834   19.70298324168185  -16.88504313460366
C          -5.87877513225733   18.02802891793264  -14.05626344585507
N          -6.76139646227436   17.84888894747538  -13.34344219581791
C          -2.53236790649965   18.14361659007309  -15.92203516686363
C          -1.32964266837498   17.49519811809385  -15.52023217225332
C          -1.55161963765550   16.79473977749782  -14.24520215116562
O          -0.73883058565381   16.13663090879496  -13.62924557921441
C          -0.18643095680034   17.56762728772552  -16.26305845685255
C          -0.19201341283083   18.30839608767019  -17.46584466932079
C          -1.39001570036784   18.96303391330801  -17.87399200931409
C          -2.55871628998608   18.86884698699788  -17.08410585773843
C          -1.38485266383027   19.70194252448435  -19.07455590791727
C          -0.25190355007477   19.79065754833669  -19.83678810819625
C           0.92696452420958   19.14535668087267  -19.43416872049097
C           0.95637055578926   18.41988999806116  -18.27400936943908
H           0.45638237270853    6.48671343771142   11.03994390281426
H          -4.37243079378698    6.87489625142123    9.84596740818737
H          -4.94691349604618    6.90693673592283   12.20243818750505
H          -4.27529365316269    6.84254125828154   14.57069676675303
H          -1.89817882445975    6.64143888227753   15.18360223926504
H          -0.17180284153308    6.50513769857716   13.43191245176145
H           0.43851572630217    7.15243969715893    5.81471000187898
H          -2.99833226533330    8.82306094250698    5.87722542871851
H           0.40174722315281    7.47668810163299    1.09055611296262
H          -0.01864398402327    8.99866055790796   -2.81140300439583
H          -3.82724777691707   11.43874699878488   -1.88658996622678
H          -1.33646240365424   10.68047706908515   -3.51508301194750
H          -1.24761133205006   11.87118061507870   -5.85629748850691
H          -4.88728899219428   12.49134327886362   -3.59100325513290
H          -4.69062781735845   14.63775064100083   -8.11075723433214
H          -0.98371807019582   14.20212811672295  -10.30550266874436
H          -4.62487753011323   15.82749116861454  -10.44657385070738
H          -1.92678501716392   15.55254842420650  -11.90117659125548
H          -4.59628382026425   16.93663609693333  -12.53377668417350
H           0.71186807479332   17.06538243225010  -15.93571994810320
H          -3.44733042145559   19.37800466842895  -17.42132411146433
H          -2.29504248378399   20.19654696092712  -19.38052395954523
H          -0.25797752234970   20.35886759211385  -20.75482698472005
H           1.81167881406840   19.22608235411573  -20.04781870331795
H           1.86117481706391   17.92104119108558  -17.95888469736050
