104
 SCF done       -191.316429294871          0.000645157489
C           4.16281064870982    6.95628452768612   -4.75109182394315
C           4.21784853450942    6.61221582607718   -6.07698632431334
C           5.41065279622612    6.29074178417731   -6.75947843772500
N           6.34106573346522    6.01758273429463   -7.37370669868965
C           3.11632580944669    6.51265432554950   -6.95228976685384
N           2.27362379672012    6.40829417559014   -7.72611162562699
C           5.31057476113993    7.02859327750375   -3.85232502828451
C           4.84592793702234    7.36483298351588   -2.54828560657571
C           5.69588328149905    7.50876286743369   -1.48955746916413
C           7.08154794452712    7.32264705732717   -1.69033512000413
C           7.55661049969486    6.98649253916111   -2.99095629354968
C           6.65031693677069    6.84158567929664   -4.06718148771198
C           8.94133449031469    6.80509396857024   -3.18112186883661
C           9.81608648919613    6.94989040438145   -2.13841212086843
C           9.34710161544029    7.28180890923985   -0.85877848319102
C           8.00838341858191    7.46365044477268   -0.63912009628829
C           3.38728447562768    7.52039202070904   -2.58228517079314
O           2.66561678866777    7.78674683566726   -1.63498287258293
C           2.97951726599206    7.29463183069960   -3.97770034086460
C           1.70881196165822    7.42624455707972   -4.47078226239200
C           0.51352532870893    7.77372925814902   -3.81530482435866
S           0.30358819164320    8.09689420427036   -2.11301799905100
C          -1.38601636196306    8.42424406508039   -2.33424642504158
C          -1.75811456177896    8.28387214989385   -3.68325714719931
C          -0.69307293946591    7.91474684427020   -4.49743698090715
C          -3.07270823341413    8.49427526062259   -4.13478399769642
N          -4.14979000726052    8.66984279136578   -4.48732073728225
C          -2.23186920743843    8.80583932479635   -1.27442879184086
C          -1.80811590139036    8.86974306845205    0.02043142863524
C          -2.57837325886005    9.28618352688887    1.11487807049209
S          -4.21650417953335    9.88816901463880    0.99980240934576
C          -4.35455515135546   10.21648162077867    2.71495145500247
C          -3.16222055709605    9.84181539525932    3.36087734626707
C          -2.19163255362282    9.33355736986509    2.45424457745019
N          -1.07672658533955    9.00433637275417    3.15034095692074
C          -1.30546356362324    9.28465706016817    4.48089255319986
C          -0.33180445069602    9.04716952861212    5.46138939004847
N           0.46744070666821    8.85021556258494    6.26035481108603
C          -2.57566717631886    9.80073216901654    4.64587039955974
C          -5.52854091596059   10.80531551944369    3.19976137901638
C          -5.73822413718535   11.15556701192797    4.50628731613803
C          -6.88086172618556   11.80754427006705    5.00311358305392
C          -7.06099448840592   12.19974428884584    6.32150611482971
C          -8.29617805593688   12.87335894283472    6.45110006114712
C          -8.90576409328919   12.86643874276188    5.10477814543993
C          -8.05848638357131   12.23008287732100    4.25629324772769
C         -10.14399141419651   13.40834629550872    4.74132588730224
N         -11.15456099638138   13.83933042172603    4.40597141997466
C          -8.82583586206956   13.45102849956940    7.58963424289357
C         -10.03205423427812   14.18688842199151    7.71708170852977
C         -10.17061442891986   14.61829248800410    9.02550571844170
C          -9.01940775376894   14.13405147581380    9.77423631864321
C          -8.21186070727010   13.43995342003333    8.92998538860873
C          -7.01142958334726   12.82360729514111    9.29925743759641
N          -6.02964686273451   12.32754894288056    9.63175691935695
C         -11.23072885320437   15.40045810547395    9.53683801800151
C         -11.32194851550622   15.81666041189915   10.83314615978141
C         -12.39085060491825   16.61101099597590   11.29541138170353
C         -12.52368961540117   17.05164983730219   12.58524264144584
C         -13.59095124341448   17.87497100184114   13.12035835500673
C         -14.65284726506129   18.40241177504456   12.42961215837521
C         -15.65613970165179   19.20424025329098   13.01322840355115
N         -16.50608648802332   19.85964698750815   13.42089241707765
C         -14.90529063493500   18.23899509751784   11.05178747666114
N         -15.18367718400908   18.16014203888549    9.94013601772252
C         -13.33687527578254   18.06489586180168   14.54517942569015
C         -12.13134592252356   17.38868845215810   14.88683498143197
C         -11.57573673054515   16.73984136940915   13.68844095090769
O         -10.55318660506609   16.08756841363508   13.63066440115153
C         -11.63598322846654   17.38948354039169   16.15877965734386
C         -12.33847230922766   18.08050184045264   17.17084217922326
C         -13.54606404378540   18.75977669347659   16.83886534415329
C         -14.03365308822655   18.74113066413313   15.51166021595377
C         -14.23974487703959   19.44629702422153   17.85613149491257
C         -13.76515661305154   19.46176559575746   19.13952079433766
C         -12.57617745977580   18.79211058518401   19.46507344599801
C         -11.87784757288136   18.11617427370081   18.50153229808683
H           5.31620652413143    7.76440195719917   -0.51135954050576
H           7.04483387039948    6.58900766286064   -5.03824590072763
H           9.29819434524035    6.54946159256972   -4.16794931833285
H          10.87504430303916    6.80953371743821   -2.29464313438685
H          10.05120583732077    7.39295039647407   -0.04791538452498
H           7.64119378795130    7.71925099431119    0.34411294829620
H           1.57260834205105    7.26136602996520   -5.53269428007561
H          -0.78012472078704    7.75507083753539   -5.55836974025237
H          -3.25633446366521    9.05727264954520   -1.51945518691161
H          -0.78595701473433    8.58475501249103    0.23971649104608
H          -0.22317559906832    8.62049546218006    2.78009741414905
H          -2.99747454718266   10.09571357476595    5.58482323418438
H          -6.29609800467387   11.00487747326852    2.46486849062245
H          -4.96779094622513   10.94587816658083    5.23309852399306
H          -6.36384913195205   12.03319451512062    7.11873261185606
H          -8.22622833036500   12.06432753169075    3.20860707404636
H         -10.71989541320807   14.38428812374964    6.91796993199756
H          -8.84174371683774   14.29998428272799   10.81993394248005
H         -12.00672129330752   15.68168440072811    8.83439432381723
H         -10.55970390394481   15.54392351070459   11.54651171926311
H         -13.14638059698709   16.87973721020714   10.56803869801544
H         -10.71899756015566   16.86763426645025   16.38940212984773
H         -14.95114977886224   19.26481941835844   15.29584455258209
H         -15.15471290560412   19.96053240578432   17.60089128953723
H         -14.30387103812306   19.99044529201119   19.91156760706954
H         -12.21641521416196   18.81445232969794   20.48290798186781
H         -10.96166207753262   17.59859011617694   18.74577281719087
