115
 SCF done       -219.500093597298          0.000535148949
C           1.91773375190554    3.19178017888115   -1.96915465066843
C           1.21257481975328    3.81826057394409   -2.95719761996132
C           1.77584609641955    4.20727397810342   -4.19099576988504
N           2.19574029525842    4.55622612588652   -5.19975387642749
C          -0.17257044429620    4.07388157329197   -2.88629589590502
N          -1.30524993300219    4.25617087661752   -2.90423735132219
C           3.27391228467580    2.67370906831116   -2.07719906485332
C           3.47490761804726    1.70578421836698   -1.04813686098371
C           4.65411989085599    1.02757339623404   -0.92446671211874
C           5.70516189692252    1.30303417868820   -1.82712623418209
C           5.51978516084666    2.29171081427768   -2.83817425407719
C           4.28543733795398    2.96949866419816   -2.95190970844198
C           6.58563677608217    2.57488059011196   -3.71653146821102
C           7.77457759646487    1.90612224766183   -3.61033305874515
C           7.95332320320926    0.92651578167912   -2.62151229523809
C           6.94174072951777    0.63229454104125   -1.74799924776761
C           2.27618337875789    1.63303073171321   -0.19554773372730
O           2.07155436353495    0.91821125617393    0.75457685385541
C           1.38996436438742    2.73355488719485   -0.69217036131984
C           0.44214737392147    3.25766212132929    0.11992892539091
C          -0.26575122126237    4.48813516237723   -0.04418520299111
C          -1.62022107810301    4.65220875461603    0.16139875115569
N          -2.53139919499442    3.68015560582647    0.62588186398950
O          -3.66626939807754    4.05110394605495    0.85683487276464
O          -2.12738447586653    2.54313967534019    0.79087797856789
C          -2.02770752890414    5.96079206517002   -0.28465545413055
C          -0.93764703967231    6.61275790559474   -0.74620601359673
C           0.23248397201869    5.79050171931672   -0.54043567815976
C           1.55551472895685    6.15622029509506   -0.65277654966909
C           2.68931445528586    5.33886211178551   -0.29217392392781
C           3.78871323177508    5.79264590926571   -0.94042892581418
C           3.42224765187928    6.96121831951816   -1.69101634021977
N           4.36025480802768    7.72055696500424   -2.41450066888317
O           4.06919108428358    8.86133179622846   -2.73077937982842
O           5.42471647833800    7.18319865788865   -2.66924188505269
C           2.09429436108800    7.28591585003113   -1.44161582512237
C           1.46390892759993    8.47790595136902   -1.87960783588324
C           0.64878302754686    9.22860197467613   -1.08477606272422
C           0.07324772677623   10.44573897868883   -1.50698756647238
N          -0.62968476795330   11.28916582198392   -0.68084242789187
C          -0.84063403528886   11.12937592180111    0.73818921639219
C           0.40414381967826   11.49925983116750    1.54046678818665
C          -1.09094777002530   12.43137193669433   -1.35904247591887
O          -1.73707735572734   13.30931457679597   -0.82865237623066
C          -0.63247923562628   12.24461776715451   -2.72230429673731
C           0.06790248776549   11.02362942915971   -2.78219077668524
C           0.50582445637262   10.82331725765382   -4.15149053501611
O           1.10472022456805    9.92009394326313   -4.68813064712106
N           0.05817998989974   11.97774075819269   -4.82672569110662
C           0.27285698925185   12.14104430194302   -6.24532320825035
C          -0.97501456868671   11.78978738499826   -7.05095772228862
C          -0.62869313798609   12.82465841551763   -3.99921274627655
C          -1.19508868857902   14.05186057530739   -4.41956284349378
C          -1.90978053912785   14.85818604699012   -3.59451901189847
C          -2.48790481261160   16.08562156027683   -4.04821014534960
N          -2.43486789500772   16.40960612199122   -5.33529955246638
N          -2.87625500546499   17.52444112871587   -5.80768081572208
C          -3.51706998466925   18.42467631363408   -5.08362792865271
C          -3.77242351791372   18.14062812453870   -3.71472418776314
C          -3.17729223500349   16.96118570731334   -3.16248114201211
N          -3.43129826594567   16.83663613624448   -1.86459317507589
S          -4.35328280943308   18.06471260495561   -1.40275294582839
N          -4.48063618394373   18.81889389501041   -2.81592064237282
C          -3.96708814609766   19.65461140532506   -5.69566111777681
C          -3.76457750915785   20.86680030586961   -5.13701020944287
C          -4.29318375693381   22.15711716801149   -5.56197946002240
C          -5.18279348078523   22.37476978915832   -6.57752443474584
C          -5.68699228057052   23.64575125900489   -6.93044906912264
N          -6.13104989844823   24.64894506557502   -7.26664522571601
C          -5.73235071258912   21.37075566003647   -7.40415774912408
N          -6.22849875964700   20.61009320163637   -8.10596672613059
C          -3.74887982300032   23.17082692710741   -4.66866944481814
C          -2.89329880360132   22.54057728714070   -3.71849654031395
C          -2.84222523810479   21.09750196717845   -3.98271531730251
O          -2.14284966032381   20.27419297610598   -3.43406156934872
C          -2.24344734694549   23.25064645998258   -2.74919803917737
C          -2.42835181722123   24.64868299279207   -2.67738916837066
C          -3.28229899546915   25.28748687361522   -3.62336859918906
C          -3.93616860512771   24.52821924686650   -4.61976714947423
C          -3.45928154599987   26.68410440299456   -3.54326948102120
C          -2.82534159769868   27.41535556568027   -2.57596436016605
C          -1.98458154582294   26.78542046542188   -1.64574159353584
C          -1.79023026764063   25.43164277663571   -1.69518930282287
H           4.78479499848901    0.29258132349682   -0.14419616323022
H           4.17470096144441    3.72135320052972   -3.71748346385433
H           6.44275421711105    3.33064792207500   -4.47415784737369
H           8.58489227080051    2.12848548884160   -4.28798563038678
H           8.89784334701758    0.40787696766036   -2.55349238722168
H           7.07515908365786   -0.11807900572203   -0.98257341073819
H           0.17060927230111    2.64831704329943    0.97847339746221
H          -3.04557189039177    6.29955690558973   -0.26757231262191
H          -0.92986699248944    7.58942333813285   -1.18294063426025
H           2.65807906252586    4.52827064226748    0.40725834391076
H           4.78815957587148    5.40296063393524   -0.89972901868923
H           1.76206962562320    8.86630459726850   -2.84745424471161
H           0.47916191477694    8.92157508821691   -0.06119742461808
H          -1.15182410443905   10.10241861016556    0.94941421790805
H          -1.65961985339734   11.80542075744671    0.99884604322489
H           1.24998322959579   10.87451281556975    1.26185282408633
H           0.20870772973863   11.37210616494264    2.60143907942923
H           0.66760947838893   12.53804431945298    1.35803087368590
H           1.08497325808202   11.45775778401853   -6.50830412295538
H           0.59176488943422   13.16634230942307   -6.44888095805651
H          -1.25670073069652   10.75547960512744   -6.86951810165901
H          -0.77115511159827   11.91202473905902   -8.11070315260760
H          -1.80957174734427   12.43214714935434   -6.77931445168735
H          -1.05949300802324   14.36450892883812   -5.44508281362928
H          -2.07553802048913   14.60639960884940   -2.55563786458679
H          -4.47880916415922   19.54740242471171   -6.64229209132041
H          -1.59749457841099   22.74915104564809   -2.04379665206126
H          -4.57072672432159   25.04265131512533   -5.32372443141048
H          -4.10727146857048   27.16455931096290   -4.26138374369631
H          -2.96799467495782   28.48408274953738   -2.52206896095106
H          -1.49167454176727   27.37835958014068   -0.89006278274460
H          -1.14368474902480   24.94138183023789   -0.98222803698385
