99
 SCF done       -202.232618819664          0.000723368189
C           3.80463705173509    3.39019275195040    2.30720761418733
C           3.52003718927145    4.32985213835366    3.26001612030091
C           4.48490976391104    4.88428075132102    4.12832821090387
N           5.22690236152095    5.36636840838117    4.85833664943525
C           2.22241318442469    4.80665969027989    3.52836237553996
N           1.17718294389651    5.21251090016295    3.77511098667305
C           5.09488706992858    2.73920677874391    2.12111253479819
C           4.89862486542024    1.53140366891506    1.38854382784249
C           5.93788584241400    0.69808164491542    1.08676524213637
C           7.24273597538574    1.04722977424122    1.50018764235359
C           7.44792094745757    2.26246616534055    2.21691187818654
C           6.35272944242853    3.10201740511396    2.52266312984458
C           8.75712458590656    2.60442729746158    2.61265323387676
C           9.81351007525802    1.78613552428530    2.31826779913433
C           9.61037444961719    0.58935968122872    1.61461759108979
C           8.35258065597285    0.22736535646363    1.21502030408801
C           3.47739871429238    1.39998843438787    1.03678487728727
O           2.91904485301275    0.48736370091061    0.47772228523451
C           2.84744545466476    2.69457667073757    1.46454374290673
C           1.63503152922915    3.01276577205225    0.96131308563197
C           0.94766256886469    4.27786027821030    0.91715912948138
C           1.58733447922078    5.52088165075675    0.80864916369384
F           2.92627767234046    5.57340706015268    0.73628243262886
C           0.87388118023963    6.69670947399777    0.72672984066242
F           1.55308205169777    7.85157609104402    0.61388834370809
C          -0.53336431257947    6.74290256188956    0.75107768005851
C          -1.16941512344494    5.49210471151763    0.83961547045219
C          -0.45452156287738    4.31230728773671    0.90110529091086
F          -1.12346863234122    3.15579918342207    0.97816061364961
F          -2.50821410773493    5.41281130692520    0.85915712610383
C          -1.17568872328282    8.02134476232959    0.67967920497879
C          -2.50630385670658    8.27511512017436    0.60439725808120
C          -3.06676760430850    9.56942666898099    0.52699721562835
S          -4.78150819088748    9.74022432435771    0.23475470879938
C          -4.74274628914354   11.47972877428876    0.20360409497842
C          -3.43701909764940   11.92059945416241    0.44172698857733
C          -2.51330903703598   10.84385726587748    0.61967487917527
N          -1.28843236832496   11.37505680859516    0.86020909370031
C          -1.40201946584633   12.75109599145132    0.84691346870475
C          -0.29111812623662   13.57681755898912    1.07722235196078
N           0.62176442830858   14.24346686975663    1.26974902607555
C          -2.70329779376579   13.12196948483400    0.58907941235124
C          -5.93902960149909   12.18679238094343   -0.05823214127450
C          -6.02245002337213   13.53164146757715   -0.20124958761440
C          -7.20156202459849   14.27255819188368   -0.48616055150408
N          -8.47576974186682   13.75717202761710   -0.62489109284648
C          -9.36568286111199   14.73681724129750   -0.90542065255995
C          -8.67010799650971   15.93454479407668   -0.95976608066484
C          -7.31405969263553   15.63109169039064   -0.69175116511979
S          -6.38479297689015   17.14749987508280   -0.75252835825741
O          -5.88010833027448   17.48566214431220    0.54645230091741
O          -5.46533531234510   17.13307305519400   -1.85303648305329
C          -7.87255015085401   18.12371439122277   -1.15749107256370
C          -8.95789995117445   17.30996035684443   -1.21110914134503
C          -7.71909539884510   19.51152108917972   -1.35329176982798
C          -8.72979758079466   20.33297963443973   -1.76431673604417
C          -8.69414571931792   21.71936373215939   -2.04029958441857
C          -7.66889551213622   22.61070475961612   -2.33552285412291
N          -6.26890677865308   22.48418008951837   -2.22935850518772
O          -5.80025121058169   21.64398486774886   -1.48164269388043
O          -5.60041101220019   23.25664694599979   -2.89308245792563
C          -8.23330857641759   23.82193980829504   -2.87741095086093
C          -9.58229351731318   23.70819358089948   -2.93390089930325
C          -9.95265352448963   22.44558592560699   -2.36071157108904
C         -11.21511058025036   22.06391071891499   -1.97581056313518
C         -11.53499115895238   21.21640317966888   -0.85106568436639
C         -12.86383346570968   21.29583417824846   -0.61111367058149
C         -13.46838454866167   22.12582142586318   -1.62915873499854
N         -14.85992944403891   22.33374386207356   -1.69584036090720
O         -15.30841395112891   23.02405618118228   -2.59545404184804
O         -15.54158985839511   21.80593429950477   -0.83472513200528
C         -12.49136056309101   22.60020857203682   -2.48024478417728
C         -12.69619477704926   23.32260902635526   -3.70498758057873
C         -11.94184079145238   23.19549216216380   -4.79802332999420
H           5.76688671935643   -0.21504111805791    0.53628475541860
H           6.53681271117850    4.02247723579044    3.05421503150587
H           8.90816966302198    3.52521821185729    3.15642065996536
H          10.81230703419890    2.05653835202406    2.62621416420464
H          10.45560994402944   -0.04370601863092    1.39011179431268
H           8.19019429502080   -0.69245307685461    0.67262293921319
H           1.11380765571204    2.19264064971683    0.47452885364506
H          -0.48867779205880    8.85391852022633    0.66032748683438
H          -3.22057123329046    7.46706525621884    0.57636274982327
H          -0.43407890432257   10.88185426114076    1.05893009763521
H          -3.05552251288952   14.13140844775843    0.52884795811434
H          -6.82147309036859   11.56838490373692   -0.16265269943328
H          -5.13701535828200   14.14075017058441   -0.11896886884858
H          -8.70878109771895   12.78235762345765   -0.52133262020416
H         -10.40765780825072   14.52948765043072   -1.04912886768028
H          -9.96477261294724   17.64400488048220   -1.41004596503939
H          -6.73132193120965   19.90248336507162   -1.15316115772591
H          -9.69778130582017   19.87741801911165   -1.92839902330489
H          -7.63362155416367   24.66371391690582   -3.16886593204967
H         -10.27590549192375   24.46835391916878   -3.23286597918709
H         -10.80725540169263   20.73726511519116   -0.22538228992346
H         -13.42056655748017   20.84167734798662    0.18631322671028
H         -13.58649072425258   23.93764888687955   -3.73276255523930
H         -11.10178272294435   22.52201388540137   -4.84305808570526
H         -12.16629033522383   23.74678273349504   -5.69431166778957
