115
 SCF done       -213.456094305064          0.000597387713
C           1.75386245588932    0.46795190165235   -1.16464100182486
C           0.91861598236188   -0.61417142845504   -1.05720543035755
C           1.35128527133727   -1.95524358621658   -1.14231724455331
N           1.62788848142673   -3.06807027407913   -1.19719435094186
C          -0.48076646999530   -0.58180830948563   -0.87918476818908
N          -1.62000143808645   -0.65532289695630   -0.74860767346323
C           3.18627309468911    0.39040046141087   -1.42448531342524
C           3.68473763189994    1.71135623914535   -1.59801234465681
C           4.99966450418418    1.96200979281363   -1.86608523199983
C           5.89835142691651    0.87762371522630   -1.97103354959297
C           5.41032031586625   -0.44920223673104   -1.79253704531318
C           4.04206541272049   -0.67587227004733   -1.51821086474397
C           6.31607116711567   -1.52465044227459   -1.89608296783630
C           7.63943062906717   -1.30199159372434   -2.16358257017792
C           8.11843941248723    0.00491423100214   -2.33925852452839
C           7.26633890919944    1.07171519817202   -2.24527724975098
C           2.58919496580600    2.67979762090319   -1.43916882609091
O           2.68853384355171    3.88373341660777   -1.55502397948006
C           1.38474688527356    1.87684980212771   -1.10271454031080
C           0.14959469268765    2.31390107114563   -0.71425996213420
C          -0.39910245499224    3.61152333724282   -0.61168765447926
S          -2.03343157941151    3.72187669434045    0.01558704329112
C          -2.06184395268049    5.44344120498245   -0.16280866841507
C          -0.83691915576369    5.89756195802176   -0.67505600313285
C           0.07891488187866    4.87044371533549   -0.92550654533134
C          -0.47931007554272    7.24710012375237   -0.85661585010504
N          -0.11585388308753    8.32743544985080   -0.98257235897357
C          -3.22489470225260    6.16227740502450    0.20858905618955
C          -3.45971878725110    7.45921699829223   -0.12620172039573
C          -4.56181616652342    8.28619113883085    0.19803945814028
N          -5.57650524473835    8.11233782761507    1.11846605220801
C          -5.75191698117020    7.05012665453156    2.08069461322503
C          -4.68996362970658    7.08352679794561    3.17606326449205
C          -6.44610835256881    9.21722561968202    1.14431116110585
O          -7.40770383960803    9.29653691702882    1.88937142238645
C          -5.93192268579807   10.11690545246526    0.14002642555577
C          -4.78238526952144    9.51794143185586   -0.41636997766451
C          -4.26212858865167   10.39591368955573   -1.44573283918423
O          -3.32790233536224   10.29743193097430   -2.20683900098241
N          -5.13319458645978   11.50675478675122   -1.41320992315211
C          -4.97526769183850   12.60649059657184   -2.33380822850222
C          -5.96357371002261   12.52131121812545   -3.49423683069740
C          -6.12999595696219   11.35548949882364   -0.48254108925427
C          -7.12523041639758   12.32208945907505   -0.22169736685934
C          -8.09882510286043   12.11748051809969    0.70818792960626
C          -9.09612903672054   13.06364801559532    1.02440432717820
S          -9.18132003821618   14.61795230280856    0.26045080648372
C         -10.56255771754047   15.05709778725329    1.22002188442688
C         -10.92257602908459   14.01235232417679    2.09246593475463
C         -10.10939213609858   12.89481310655714    1.97437120991370
C         -10.27876044549911   11.64677558099346    2.78476836758852
C         -11.62915990629308   11.61747630702889    3.49503580110249
N         -12.70299452825862   11.17268541329639    2.54786274463153
O         -13.77783474668016   11.71022901347912    2.63734856859381
O         -12.41986087809641   10.28863470237088    1.78506504928848
C         -11.99600038829415   12.97570968364778    4.09624863577067
N         -10.96111038617411   13.27513024775738    5.13890387512835
O         -10.81822394398921   12.43322889550372    5.99059583977920
O         -10.35379691584019   14.30735337394039    5.05707042826238
C         -12.06597388980680   14.08532714585974    3.05688563154444
C         -11.24517107779359   16.28192335440353    1.17689111501411
C         -11.02319765453545   17.40265368916349    0.42001874284086
C         -11.78702158972038   18.63455816254605    0.50380661980232
C         -12.81276998710426   18.91812907611556    1.37064779075804
C         -13.50678742186695   20.14626300701316    1.39742533217920
N         -14.11517464862366   21.11705119769370    1.47132136745187
C         -13.31978555899588   18.04987445845560    2.35850754202922
N         -13.77826898455938   17.39810439618729    3.18706688492773
C         -11.24932770385413   19.55344329336401   -0.49436874560024
C         -10.16841848265979   18.91247123249739   -1.16582386543668
C          -9.99257683988112   17.56134803222301   -0.61670829319863
O          -9.16120144590481   16.73961657564550   -0.96279256630148
C          -9.45947854228820   19.53188448374454   -2.15396836106167
C          -9.80558070201926   20.85029086624955   -2.52568356387695
C         -10.88623906839135   21.49919863441622   -1.86165540279931
C         -11.60219127937713   20.83048840582608   -0.84143139679218
C         -11.22319515081235   22.81442243858395   -2.23997983289460
C         -10.52683930598824   23.45952885348355   -3.22601979633914
C          -9.46307976156868   22.81956980645170   -3.87885177460451
C          -9.11008346725357   21.54222101210528   -3.53616609334391
H           5.34810585448663    2.97596500337259   -1.99543865093012
H           3.70839814168316   -1.69234057746092   -1.38486635126401
H           5.94267025112109   -2.52916301475925   -1.76114812742049
H           8.32501828732367   -2.13241581428759   -2.24148460545109
H           9.16580231578004    0.16211193629409   -2.54930548171193
H           7.62884053715904    2.08035642948169   -2.37954378881581
H          -0.55245072101629    1.54363533337919   -0.41690091266261
H           1.06638316583949    5.03984926236485   -1.31630207361051
H          -3.95797890787809    5.58425289395152    0.75069422510507
H          -2.74392695628298    7.96398057360908   -0.76291987375523
H          -5.77075449266445    6.08313532993655    1.57175194321460
H          -6.73803546770384    7.22089425600090    2.52380881453579
H          -3.69083716583466    6.97279204062393    2.76139355395311
H          -4.86760483305521    6.27793879272469    3.88309487621307
H          -4.73843283771680    8.02993201998249    3.70899432546582
H          -3.95303648330116   12.53386544611257   -2.71547419203934
H          -5.08704770432213   13.55262634100115   -1.79723453922361
H          -5.82016824568594   11.58971236555140   -4.03614692499121
H          -5.79875094911224   13.34941410565231   -4.17757370277920
H          -6.99023234945483   12.56167121868984   -3.13730764380477
H          -7.10101981939311   13.25316694544173   -0.77009047844706
H          -8.11336986270932   11.18172090498624    1.25060601332989
H          -9.47387314391334   11.57466171859190    3.52210827171316
H         -10.19609780035966   10.76439319450959    2.14467467175593
H         -11.60667860138379   10.85857093725237    4.28860439345014
H         -12.95163233262270   12.89902387890633    4.62795413569192
H         -12.07155285055837   15.04806086928969    3.57349678318877
H         -13.01652000466397   13.99922533868457    2.52127260087432
H         -12.07830142531089   16.33375098818417    1.86306500927607
H          -8.64381740509889   19.02277156905044   -2.64563250806106
H         -12.41486257906239   21.35086206814211   -0.36045529731540
H         -12.04276889602012   23.30355396085087   -1.73437029436799
H         -10.79235986672377   24.46726924223509   -3.50805167823301
H          -8.92446485665884   23.34321726030409   -4.65437027737834
H          -8.29168924094001   21.04417146691901   -4.03521595128379
