117
 SCF done       -232.222147859436          0.000304906102
C           7.10878282732578    8.88919769866633   -6.24054916687170
C           6.30226011759895    7.78643013511103   -6.32885376731738
C           6.62828149719844    6.63665889690047   -7.07836666108184
N           6.84926039538744    5.68122854418046   -7.67341141926410
C           5.09446178078875    7.66009071407337   -5.61422571144420
N           4.12478684649337    7.51552681435836   -5.01595250686145
C           8.45934312826286    9.01962331213685   -6.76273511377353
C           9.11397887511303   10.09021151780576   -6.08117811622737
C          10.40693885340180   10.43177639461202   -6.36098780234631
C          11.11008155400713    9.71199694227074   -7.35241259041099
C          10.45593021183391    8.65096880630972   -8.04560424741253
C           9.11890685436764    8.31526267901316   -7.73362368840760
C          11.16763461058736    7.94913163972810   -9.03947777157217
C          12.46345517589660    8.27589945373526   -9.33543788605436
C          13.10661778224614    9.31892953333015   -8.65228958872800
C          12.44486708551701   10.02116097831352   -7.68144039785158
C           8.18328118467156   10.70502378025394   -5.12421017589822
O           8.38601623817651   11.57230130048080   -4.30884374177262
C           6.86561190126120   10.05347163111270   -5.40886939754389
C           5.71793867611214   10.64840740554110   -5.01254636552229
C           4.38316931826308   10.40464289126382   -5.45869045990026
C           3.88826296851161   10.27403874283199   -6.74514909088621
N           4.57896980797839   10.28673527731773   -7.97076975835584
O           5.80160520780401   10.27107023754173   -7.96052742968741
O           3.90791171944529   10.31532987055066   -8.98575563368457
C           2.44766019680278   10.22188336493483   -6.69668279474961
C           2.04802146206351   10.34725066950791   -5.40582454300959
C           3.20776599638425   10.46275706884919   -4.57168660220272
C           3.27269397632003   10.47852566206847   -3.18932912442434
C           4.36396320586485   10.01707215768060   -2.40859007007549
C           3.98378090460204    9.99133600927100   -1.09117588547098
C           2.65964724139889   10.48508745693966   -0.96621928916505
N           2.07295318663351   10.58796921384363    0.31047071457406
O           0.89138335138862   10.88504891524074    0.41401931613339
O           2.79120296119244   10.35893054038385    1.26476320588948
C           2.18198419197513   10.84186801232066   -2.25346569404699
C           1.08356861229240   11.56006169610011   -2.70533643987083
C          -0.05310246619758   11.96246603504305   -2.01622518260142
C          -1.08937443755659   12.63429719964821   -2.63127236553095
S          -1.12984547174519   12.93431275280993   -4.35328503221222
C          -2.70170444147861   13.65917776619624   -4.29722495924126
C          -3.13007299080381   13.79355322093130   -2.93790958905564
C          -2.25714616703994   13.17375644794147   -2.01095745933419
C          -2.54766536805012   13.18261679293915   -0.64625651372330
C          -3.67388220615127   13.85717696889243   -0.20667693402859
C          -4.00496174871116   13.88076023169529    1.17025811825995
N          -4.27416124585835   13.90692145125310    2.28257127994689
C          -4.48255431082627   14.57417157939105   -1.12332253173835
C          -5.56799323068183   15.34522095315399   -0.64898931282442
N          -6.44038450075887   15.99529927082860   -0.29066884073327
C          -4.20912696605798   14.54801975210731   -2.48016718082709
C          -3.41150354255433   14.02112973332049   -5.43637984307347
C          -4.82849341708399   14.12162873304547   -5.56009081621932
N          -5.78757727273441   13.45187580488598   -4.78571272590557
O          -6.95866935575474   13.72373785670358   -4.98216995819119
O          -5.40218630814664   12.62927442365052   -3.96444847304998
C          -5.13277642913159   14.81112154186570   -6.73958967439057
C          -3.94156313148929   15.20628806681596   -7.33771950613550
C          -2.86275875351725   14.67934928279116   -6.62185396137740
C          -1.49289200538455   14.92369939891786   -6.89668330541773
C          -0.44809101294202   14.00880335172308   -6.95856776549329
C           0.72875355549888   14.69795182454406   -7.24217553512394
C           0.45601035894203   16.07485208298922   -7.30901989334934
N           1.48720121760158   16.99937657481579   -7.56603527182940
O           1.20408191704052   18.15567692730147   -7.82934187562757
O           2.62822621461506   16.57684695648358   -7.51408400806885
C          -0.93461126104836   16.27426898001333   -7.10660674060093
C          -1.74735159247770   17.38145611197866   -6.85759454871996
C          -1.42289637808637   18.71984949211561   -6.79583394529403
C          -2.35333082557856   19.72310887236469   -6.48095072332237
C          -3.54108335963604   19.64197205504155   -5.78627510777469
C          -4.48941885764214   20.73452895815318   -5.69060248274910
C          -4.57683579299873   21.79706659381802   -6.55733214008877
C          -5.52882628591111   22.83157010088060   -6.44084231666736
N          -6.27131173346249   23.70542792862733   -6.39426946745052
C          -3.77572144965447   21.97131917860632   -7.70574216151775
N          -3.18754756947628   22.16065160454976   -8.67332982736389
C          -5.40051764091577   20.45552700937945   -4.59241849508460
C          -5.08563541833618   19.16829724946714   -4.06644411788461
C          -3.96296075070955   18.58707103315617   -4.81287586514665
O          -3.47056211869451   17.48898361716914   -4.63235388440914
C          -5.78567782591413   18.63401156204408   -3.01938036723180
C          -6.84488768470886   19.37113998158855   -2.44591843633564
C          -7.16157533414690   20.65999036696820   -2.96898278162338
C          -6.42076872032682   21.18989326905463   -4.05045385434195
C          -8.21991082223166   21.38680868622266   -2.39045296890802
C          -8.93456965350640   20.86617070188455   -1.34393675097939
C          -8.62084441094187   19.59963664869927   -0.82978346497012
C          -7.59760429296365   18.86484973534865   -1.36769871579228
H          10.88665404683917   11.24437068260637   -5.83582306617167
H           8.63924017374434    7.52005009439256   -8.28254191453294
H          10.66903284689396    7.14626045072985   -9.56195969616601
H          12.99984701000433    7.73242293516090  -10.09857215518046
H          14.12848881579014    9.56411867012715   -8.89967666497716
H          12.93505222540266   10.82554492876845   -7.15299932620241
H           5.83546435232589   11.45236551216786   -4.28989073308130
H           1.83624693645338   10.08837063172142   -7.56878270974712
H           1.04088997659513   10.24016574562461   -5.05420880519642
H           5.28783039645661    9.64044063228656   -2.80104127159577
H           4.56804663216164    9.64924824068834   -0.25709663284027
H           1.13127353603516   11.85867839406883   -3.74534810606225
H          -0.14903888945481   11.72537463937820   -0.96656613854285
H          -1.90641645018567   12.68251036875811    0.06312631341771
H          -4.80316872396582   15.13693318249245   -3.16176309426107
H          -6.12713062836887   14.96724506280096   -7.11332554501332
H          -3.85525906235854   15.74155880130132   -8.26469247550113
H          -0.54643620829288   12.94068752177271   -6.92514530759644
H           1.69995691129518   14.26860413883001   -7.40390264087016
H          -2.78161066534301   17.12959382485014   -6.67263176517563
H          -0.43199572456533   19.04427270569246   -7.08223384540095
H          -2.06313341229869   20.71666385032030   -6.80696551920729
H          -5.53892722383215   17.66009077252857   -2.62374598073452
H          -6.67636942171502   22.17081528116364   -4.41838959145409
H          -8.45777305113854   22.36159839055752   -2.79008264650973
H          -9.74488006775944   21.43084160067233   -0.90795912499313
H          -9.19200527585396   19.20502372380060   -0.00359052358382
H          -7.35183566368396   17.89089053274863   -0.97205705391494
