120
 SCF done       -210.241023554381          0.000594776155
C           2.23055929333760    2.52085510399117    2.07626644260073
C           1.59868874256988    3.38090594548218    2.93545669135718
C           2.26742083622560    4.13598607994306    3.91859367979998
N           2.76831530999805    4.81862225315849    4.69444908632924
C           0.22039630747647    3.66617568924336    2.90899742872516
N          -0.89328590923349    3.94557917917733    2.94922097781604
C           3.60986587538179    2.06605848017880    2.20220082033608
C           3.76343409417509    0.85835355134131    1.45903853451342
C           4.95166585478506    0.18723356077208    1.41715108727442
C           6.06345340824061    0.70824177752169    2.11645759903057
C           5.92147010044166    1.92295304987326    2.84819011852899
C           4.67622784671951    2.59061022239969    2.88283155249425
C           7.04118706712711    2.43792237918805    3.53295618425653
C           8.24285826662275    1.78468637290920    3.50079655787938
C           8.38106557742362    0.58763544933806    2.78210338286109
C           7.31472911499483    0.06075153503155    2.10535363846232
C           2.49347177873393    0.53436757372025    0.78507713359772
O           2.22101051066372   -0.44155289125324    0.12771353865402
C           1.61638559621454    1.71928945944928    1.03133071881336
C           0.57134200964098    1.95804745736222    0.20902247581386
C          -0.15402668293823    3.19088679846245    0.05108644841616
C          -1.48653578193657    3.18994161534606   -0.32081397453898
C          -2.23070497588177    4.36651104569534   -0.37635302795811
C          -1.66837545317063    5.57971413846414   -0.04263066225252
C          -0.28134253621580    5.64020099938239    0.23828780123679
C           0.48611465595976    4.44895257545994    0.24474528283630
N           1.81819244577861    4.51664077232356    0.41847223971509
C           2.38226625787510    5.67392693055527    0.64440561817802
C           1.59498242819979    6.86152708687520    0.72032926953481
N           0.30854764971412    6.82426801845648    0.49342444752292
C           2.20883258068143    8.18274234291739    1.03387576790678
C           3.86171207021819    5.69892360336405    0.82229603137978
C          -2.46859969894278    6.79724218137174   -0.01099471020614
N          -2.75797079831194    7.48918379155604    1.12146509865684
C          -2.42003436204358    7.10864685591263    2.47474468460673
C          -1.33164235135704    8.00792748808413    3.04989711842387
C          -3.52425000681498    8.64454769598703    0.83912912801396
O          -3.92891787811303    9.40502952337568    1.69509166895021
C          -3.68188960246022    8.62516778063550   -0.59871645363477
C          -3.03942457766600    7.45546738424514   -1.08397904840519
C          -3.16410395324131    7.42889355305018   -2.52635007862977
O          -2.79568629963357    6.63385197782236   -3.36183645026440
N          -3.88161369920915    8.60409127579315   -2.82271605794851
C          -4.17840469196564    8.97137539704641   -4.18731604122283
C          -3.19867021439889   10.01056752524164   -4.72654116005298
C          -4.18646232850331    9.33051100923173   -1.69365388245015
C          -4.86516355145598   10.56735092015856   -1.72104454639210
C          -5.18955955700538   11.26686607241317   -0.59499171023249
C          -5.81379645093741   12.53469023397342   -0.62049957552695
C          -6.09536193756017   13.33894930598830   -1.70931612968377
C          -6.68060990827444   14.55053201149173   -1.26286592225514
C          -6.78037929476454   14.43991867608462    0.20872938609676
C          -6.25179320079332   13.24566265079276    0.57583169101379
C          -7.33149531988301   15.38402110084660    1.08246056607713
N          -7.78657057672860   16.13439899394878    1.82358983169665
C          -7.04074589257000   15.63316352182180   -2.03745386627165
C          -7.59851155292690   16.87006053866335   -1.60448551854018
C          -7.81244055615897   17.68402839836393   -2.70117393441001
C          -7.33779556845367   16.97396647016059   -3.87910905486905
C          -6.88238774018341   15.75098071751966   -3.49504144825676
C          -6.32721647012175   14.79980083792250   -4.35719626675107
N          -5.86888099119002   14.03211524841404   -5.07978006598428
C          -8.33053349893619   19.00175605326647   -2.62122761373653
C          -8.92720318639648   19.73807763344820   -3.60325919030969
C          -9.28669164595384   21.14260077018260   -3.50934237457133
C          -8.87672102027190   22.02507965398018   -2.54345751934115
C          -9.24333841311251   23.38701227359094   -2.51260551986947
N          -9.50847800987982   24.50082779808706   -2.42852410143216
C          -8.00853322214829   21.72228667264923   -1.47308413699470
N          -7.28783075819018   21.56888797564939   -0.59250354008563
C         -10.08587187958439   21.48136275004472   -4.68050820498667
C         -10.18803007882738   20.32774298129869   -5.50835404325486
C          -9.48278374712092   19.20045214555297   -4.87601566787695
O          -9.44072477917689   18.05927374909330   -5.28220551553622
C         -10.86634235783587   20.34495498201274   -6.69289088195214
C         -11.48298269778457   21.54359742689961   -7.11526431191250
C         -11.39283424918000   22.70118819643696   -6.28929829090891
C         -10.68735659279018   22.65074008629442   -5.06520991553362
C         -12.01470274415253   23.89128645138407   -6.71880005003693
C         -12.69029290211122   23.93838887004995   -7.90776987547907
C         -12.77698638548473   22.79835614891051   -8.72083272458978
C         -12.18646980605118   21.62631922805922   -8.33289772097568
H           5.04434077288936   -0.72945724779997    0.85396617374053
H           4.59845830245470    3.51133491947525    3.43961118369299
H           6.92907426580081    3.35779192328564    4.08801720325611
H           9.09404048040374    2.18640759930972    4.02970462531589
H           9.33673845348072    0.08557364703010    2.76733550438850
H           7.41537598189322   -0.86032078597277    1.55029355310992
H           0.28550742348686    1.13934333635754   -0.44313586914611
H          -1.97676408094267    2.24760354688651   -0.51394123386315
H          -3.27698269207846    4.32349137512200   -0.63682189409181
H           2.66412657045087    8.15824913406814    2.02324660280758
H           1.44590876841221    8.95559764090043    1.00639048297427
H           2.98714405110998    8.42227810391969    0.31117148775889
H           4.26549660206929    4.70282846224692    0.66155285294402
H           4.10888676940339    6.02951615985498    1.83085347986866
H           4.32002806562375    6.39246563117133    0.11955033831256
H          -2.09578728913001    6.06549324417011    2.47272118869295
H          -3.32734386653992    7.20323948692471    3.07943516508810
H          -0.44668502221638    7.96301669124261    2.42144127347225
H          -1.07476221325798    7.67473156046976    4.05130133374600
H          -1.68345788752987    9.03510707994054    3.09815377335050
H          -5.20730064373163    9.33502085206702   -4.25323299231608
H          -4.09174679852608    8.05064561677251   -4.77117219893933
H          -3.23210756114384   10.92580228062887   -4.14010105156527
H          -3.44948061397935   10.25006396333673   -5.75582766215441
H          -2.18591220246489    9.61605603774743   -4.69641499168065
H          -5.13248746364511   10.96992894954125   -2.68672018567112
H          -4.95499029112162   10.84947633789454    0.37541076058821
H          -5.88805999311032   13.11671756984124   -2.73638745048659
H          -6.16526116344256   12.85900563626987    1.57446328126148
H          -7.84034446075525   17.11269384877505   -0.58761406502950
H          -7.32163511048404   17.36481375299170   -4.87694517745800
H          -8.24312814048670   19.45010267336944   -1.63803341776990
H         -10.92755884353798   19.45528911912685   -7.30211240728736
H         -10.64338277519155   23.54249017235892   -4.46054074499710
H         -11.94414135808567   24.76672112805973   -6.09004121218456
H         -13.16166311930770   24.85517646351090   -8.22879007383247
H         -13.31403945016713   22.85346911457811   -9.65592650002729
H         -12.25000079500322   20.74506581783105   -8.95439007053870
