113
 SCF done       -206.210405290757          0.000953917844
C           2.81788583667131    2.33692970188030   -1.29893980553822
C           1.83751642258077    1.88674206708380   -0.45296978166227
C           1.31512874544276    0.57776373436753   -0.48568637566151
N           0.85579153724623   -0.47399515267950   -0.47690980378671
C           1.30905408447037    2.65647863983424    0.60156120810035
N           0.87894641472597    3.24363816761755    1.48945838678290
C           3.57247514179674    1.50698251067080   -2.23187711725632
C           4.78916706626020    2.17727246424548   -2.55328999203909
C           5.71709557387706    1.61910883740662   -3.38433218343351
C           5.46149816395872    0.34897530711716   -3.94870501891256
C           4.24061183027632   -0.31917678043710   -3.64288559658816
C           3.29991979363743    0.28015246262015   -2.77391199703159
C           3.99585328031636   -1.58304641522148   -4.21686054002486
C           4.91271474633271   -2.16235089754962   -5.05122996087982
C           6.11440240750080   -1.50410961337980   -5.35168593274304
C           6.38309262417587   -0.27553876756489   -4.81195472568211
C           4.81863798370624    3.48449848365743   -1.87556451966843
O           5.70754469479589    4.30420274316720   -1.86325202932539
C           3.47409029207183    3.62590912326093   -1.24169006701717
C           3.07038553555952    4.85562223006559   -0.82576562064094
C           1.75679223072634    5.32456579860222   -0.57820896440685
S           1.51010734866833    6.76133090973443    0.37502474956665
C          -0.20404631053542    6.71806886465325    0.12582545813547
C          -0.55010727012679    5.62840751848922   -0.68096010539783
C           0.55278636361324    4.85379780949510   -1.06291618233183
C          -1.85674562000691    5.25705161517289   -1.04630970178275
N          -2.89404068942312    4.88031900096988   -1.35839228952685
C          -1.01584592112971    7.71908476206447    0.71659384137502
C          -2.30198671096563    7.97045285387559    0.36053582620064
C          -3.17847886399849    8.96024124518182    0.87349341667611
N          -3.13259883337789    9.63790128035661    2.06801881346430
C          -2.21564608065844    9.46236755427255    3.16852194248608
C          -1.07172803358611   10.47339118569790    3.11989598970200
C          -4.21057491157198   10.54827305319274    2.19888265543723
O          -4.38475294262810   11.22802504356695    3.18491277567697
C          -4.94457892629984   10.40943804670455    0.96007775266753
C          -4.30213809511535    9.41967825627984    0.18750167728744
C          -5.02878843966974    9.28228815308342   -1.05338787009322
O          -4.84370621118334    8.59694557382288   -2.03472194219595
N          -6.11156478843113   10.18553974478990   -0.92614168718433
C          -7.00485736373992   10.35781906136216   -2.04682397081076
C          -6.77490738819494   11.68218804839564   -2.76969991389225
C          -6.06392415518676   10.87488992532050    0.26614421045786
C          -6.93139289668240   11.87354902516035    0.77876954275910
C          -8.13866963061398   12.26475543721829    0.29917637357163
C          -8.93753766994223   13.30185458992092    0.87024158492117
C         -10.23045236368630   13.53846924254159    0.39307088490885
O         -10.65159779159233   12.71626810853284   -0.58865622523302
C         -11.63573747776403   13.13475029596196   -1.52143761753934
C         -11.08485616713114   14.55988074623742    0.95063044808191
O         -12.38784320310219   14.37361803583487    0.68681761740255
C         -13.39611820307387   15.05710580725828    1.38467469584011
C         -10.57536057793523   15.53877223106982    1.81124578339279
C          -9.28509630594789   15.27134998133399    2.35077985620212
C          -8.48588511411312   14.15876595227233    1.91384495773978
N          -7.35631843085426   14.20983347701370    2.58505135447975
O          -7.43951739810398   15.27075651598514    3.38688305995342
N          -8.59142420067551   15.93135266291459    3.25168191686276
C         -11.16781200220953   16.79456018269118    2.13209665448966
C         -11.82125874390765   17.59231241276806    1.23573257888611
C         -12.39396885233389   18.89488129145753    1.51321592743740
C         -12.86295669764639   19.30535411575553    2.73237966005339
C         -13.43971656380987   20.56930285468415    2.96781784270894
N         -13.91529212839373   21.58746935614088    3.20166228815884
C         -12.89112590660542   18.46370029313706    3.86436349461469
N         -12.98586842420364   17.78829697198077    4.78765824413827
C         -12.49354599920901   19.61130100650173    0.25034226401151
C         -12.11575994840085   18.72455373264589   -0.80019932444319
C         -11.74971797046940   17.41570017749976   -0.23387738542216
O         -11.40611456502017   16.42381720588710   -0.85017519372924
C         -12.11815446091057   19.11750747903049   -2.10749112986078
C         -12.50013303680671   20.43976584521675   -2.42838115497818
C         -12.87168068003331   21.33344916943754   -1.38246635733352
C         -12.86427132562196   20.89720996178610   -0.03722943080216
C         -13.24246090539501   22.65162654119169   -1.71586231045254
C         -13.24774332920347   23.06917901753065   -3.01922511574618
C         -12.88318518337198   22.18837696668116   -4.04810288315664
C         -12.51842318155195   20.90120255605324   -3.75906658604842
H           6.63577640031301    2.13993434400124   -3.60941981691578
H           2.37899268404323   -0.24236351731787   -2.56710573913299
H           3.07052213994030   -2.08713728221616   -3.98009933741287
H           4.71697114235758   -3.13183876815805   -5.48409716396484
H           6.82609231735464   -1.97511118439785   -6.01305143999397
H           7.30677854679680    0.23593373289824   -5.03960533135731
H           3.86172479682648    5.59530936989672   -0.74876285513677
H           0.46582651224816    3.99819819871998   -1.70988482607871
H          -0.51137070993761    8.33752816628705    1.44367092058335
H          -2.73293976269937    7.41693115677067   -0.46406467827622
H          -1.84878470904896    8.43402388817580    3.16925996036526
H          -2.79291800534960    9.63249185515795    4.08286081919654
H          -0.52937545156196   10.41620727085349    2.17825731981412
H          -0.38045176605319   10.28856363307256    3.93753902597138
H          -1.47275906619948   11.47830002388835    3.22299241179318
H          -8.04261698544579   10.25420603104622   -1.72090997533568
H          -6.77518992796737    9.52982418830542   -2.72551493397903
H          -6.93902986737615   12.52815924057485   -2.10660046274000
H          -7.45404760005966   11.76111765388631   -3.61410506843435
H          -5.75395922270281   11.72644377694969   -3.14107414804279
H          -6.56018121399244   12.34176677181193    1.68196686757851
H          -8.59171540843205   11.78535598640082   -0.55249725166889
H         -11.40277121614381   12.60173270155244   -2.44396517260045
H         -11.59220422860978   14.20982848613728   -1.69387420143705
H         -12.63603524551371   12.85626242895869   -1.18528800361489
H         -13.62255658628203   16.02264216222003    0.91985161238507
H         -13.12673684366222   15.22483119328933    2.43154792135543
H         -14.27709977697445   14.41706019487401    1.32485650064134
H         -10.91224085145462   17.19105386676387    3.10720292677754
H         -11.83067012715910   18.42986836825541   -2.88920172903042
H         -13.14205146172960   21.59527245715680    0.73697379032190
H         -13.52363457859762   23.32572739712801   -0.92022983389016
H         -13.53286352621644   24.08122292398644   -3.26418435502571
H         -12.89177569678638   22.53447762512750   -5.07076665051726
H         -12.23602793079435   20.21877226044333   -4.54744842569313
