100
 SCF done       -179.258786902107          0.000405132954
C           4.61087882948016    4.04279973100422   -0.14411235963695
C           4.96388276573902    3.17778597613256   -1.14727651980723
C           6.21000114348271    2.51951162648825   -1.22000786529160
N           7.20097912480720    1.95304993581967   -1.34200163108784
C           4.15355856322295    2.80424204428687   -2.23942691856390
N           3.55678944517744    2.44762501675129   -3.15405643289733
C           5.45238775933958    4.40164300157828    0.99319629361745
C           4.72029229564285    5.28141364904627    1.84145722404022
C           5.25085826391197    5.79016207004406    2.99168496324561
C           6.56996050682959    5.43772372044032    3.35393967575056
C           7.31171484276345    4.55999265163238    2.51156911876586
C           6.73260088364021    4.04720398261097    1.32749550644363
C           8.62808598427342    4.21720187618370    2.88094594804774
C           9.18650596177275    4.71689391951002    4.02620930815341
C           8.45510524490970    5.58094852385620    4.85447580660285
C           7.17403769004259    5.93348813070670    4.52577920393262
C           3.39085885174954    5.51180003977875    1.26334873204193
O           2.50448317683462    6.20316815580846    1.73468990022414
C           3.34996681037806    4.75000821341396    0.00506477140795
C           2.31222489013855    4.74583309881939   -0.88623984402550
C           1.06666721022291    5.40036180361771   -0.82856474368082
S           0.44752236810270    6.39942992764242    0.46215092929907
C          -1.03363027362801    6.67548569033538   -0.38933713955885
C          -1.03885501913671    6.01882278870881   -1.63141765911054
C           0.13833694743273    5.30740793910093   -1.86001084434826
C          -2.08752618873204    6.04660616440813   -2.56506688961832
N          -2.92963759312069    6.05387694832877   -3.34584056777518
C          -2.01989501999783    7.48898559010804    0.22259385754322
C          -3.21277063219426    7.83858606928349   -0.31670387178183
C          -4.17760305064525    8.65256393208150    0.33549637089273
N          -5.35334137953866    8.99556822430514   -0.28365517942996
C          -6.11579167076694    9.76971472290887    0.52112065799367
C          -7.39882587635120   10.28801774082435    0.14893542505752
C          -8.01064092806847   10.08612589238079   -1.01994745016672
C          -5.40464456631466    9.94047627293861    1.73498999365319
C          -4.19377167863051    9.23310487912823    1.59363463477740
C          -5.84905085920561   10.68061150492205    2.86796227497768
C          -5.15255182974129   10.79583529317618    4.02705059197280
C          -5.57853778654221   11.51574757454784    5.16986595027222
C          -4.88676330860742   11.61410920554298    6.35932700896577
C          -5.62671212039937   12.40164637572925    7.27776610117596
C          -6.85636820960147   12.81125928558805    6.56137471177299
C          -6.81495814110660   12.27835357405693    5.31517753285216
C          -7.88992512206073   13.61855370575510    7.04842632263514
N          -8.75923331591538   14.28058223950807    7.40372229327667
C          -5.29229145783678   12.72455906825139    8.57372464260936
C          -6.04690661764981   13.50716363641229    9.49855996739545
C          -5.33394146159881   13.63505259318669   10.67218171643167
C          -4.10500477763966   12.86943480035987   10.53330037927785
C          -4.07265354463689   12.32247392606618    9.28799821009478
C          -3.05072467452345   11.49792070030377    8.80578571701015
N          -2.20178144247924   10.81679638285256    8.43708182519073
C          -5.77580076312658   14.35138692651366   11.81725097368673
C          -4.99029034614899   14.95827081778543   12.75080105951008
C          -5.43580947312213   15.56803662744319   13.99108644349861
C          -6.66025341584413   15.39889359477386   14.58305133928270
C          -7.03503506836931   15.99488029727953   15.80535766579474
N          -7.39936392814671   16.45465691863846   16.79217261040492
C          -7.69641143684619   14.58322184696796   14.08110284195028
N          -8.57421469852880   13.92112928420971   13.75020066492686
C          -4.31726839297730   16.31903820750967   14.54727198320055
C          -3.18547170695144   16.14138946330878   13.70141279514711
C          -3.55115438750872   15.28914556925205   12.55767136745970
O          -2.84363212071243   14.99566356603950   11.61839554720461
C          -1.98106562890671   16.72328851079219   13.97396087683563
C          -1.84927639782560   17.52323899092477   15.13078738674297
C          -2.97794345275626   17.71073184549392   15.98015917317392
C          -4.21353738491642   17.09793674490611   15.66963047574781
C          -2.83592560595908   18.51454716833301   17.12962105889654
C          -1.63768883412748   19.10407156484810   17.42793663799734
C          -0.52711727351872   18.91836471237326   16.59106073710742
C          -0.63054215120281   18.14447648749859   15.46711570312734
H           4.67193856843008    6.45451060349543    3.61589879635970
H           7.32306530373644    3.38687221319279    0.71279427301094
H           9.18753859476880    3.55127514347084    2.24050019939099
H          10.19583950116590    4.44865436612164    4.29996961725667
H           8.91136595413579    5.96603717436969    5.75405749695163
H           6.60553489507681    6.59830194850786    5.15944517537900
H           2.44086406621633    4.16616227583030   -1.79239415331781
H           0.31995820019821    4.73532350449687   -2.75386977078897
H          -1.76129954885761    7.84941875021610    1.20872138126397
H          -3.47459613020921    7.49210087544208   -1.30662620344094
H          -5.60626350297040    8.70473520575067   -1.21431998088484
H          -7.88828928786597   10.89125772365540    0.89985950773813
H          -7.58322900559152    9.49609004160539   -1.81314535996859
H          -8.97664539600892   10.51275219010790   -1.22153937427768
H          -3.41848091782739    9.15320105690309    2.32706959309811
H          -6.80895448846281   11.16890099799544    2.77910279849502
H          -4.19431982109972   10.30448232505525    4.12223087840768
H          -3.93799596320500   11.16113299794820    6.56907357666556
H          -7.56594394310349   12.40066673700991    4.55707203084036
H          -6.99718449362025   13.95959123778028    9.29002589468316
H          -3.37359613447768   12.72444687992365   11.30373203933801
H          -6.85204420224761   14.43627968379783   11.91361807912013
H          -1.13841776716667   16.57260861120962   13.31545771323736
H          -5.05087595721458   17.26548009918885   16.32828256846891
H          -3.69344363500023   18.65382407929014   17.77145162628893
H          -1.53886609042293   19.71720644559797   18.31113153814047
H           0.41054613844594   19.39171686074124   16.84123977680560
H           0.22082651800602   17.99787100977346   14.81859528932197
