131
 SCF done       -246.718348035208          0.000750622883
C           6.02867713196247    7.07017067651059   -3.07330420924299
C           5.04718633175241    7.84104998694527   -3.63284775159126
C           5.26613622934935    9.07453691273113   -4.27285333201540
N           5.40017009439877   10.08882811350115   -4.79303471184420
C           3.72258678122820    7.37255303252017   -3.71274609908986
N           2.68078958818122    6.92021354450597   -3.88251399703577
C           7.46394899404308    7.19722941859833   -3.25206953763698
C           8.06763364861773    5.93527868152987   -2.96639698835034
C           9.41431448310557    5.74685161146648   -3.09429331169769
C          10.22537948642267    6.82617587325244   -3.51116689746289
C           9.62655572394666    8.09110223466709   -3.78405624563961
C           8.22985630179993    8.25870226108032   -3.64989004191580
C          10.45220099489343    9.15872298475183   -4.19159984430233
C          11.80299219898293    8.98824886866104   -4.32649334648130
C          12.39123087235521    7.74261668065424   -4.06022412127540
C          11.61935705232211    6.68528854616826   -3.66182253982521
C           7.03687387289291    4.97729183074576   -2.52913308281924
O           7.15424130059496    3.80428487269690   -2.26743696852738
C           5.79536321307722    5.80047463552046   -2.40460859522163
C           4.78535616738091    5.43660119110924   -1.58798624775463
C           3.77968897283105    6.28526477683014   -1.00800742075038
C           3.95287761443654    7.50931187789708   -0.37583231684804
N           5.12471107157415    8.25666988398316   -0.17495869736903
O           5.03544840711285    9.26252035293691    0.50700904062382
O           6.17315878346804    7.87858763302379   -0.68167965844899
C           2.69817191561201    7.94776540245969    0.18875586461689
C           1.74048238773891    7.07470818609720   -0.18091108619498
C           2.34649206443307    6.01453009196143   -0.96300079740880
C           1.64929641751707    5.03746726740200   -1.64694396700861
C           2.05613057973145    3.71216318323775   -1.97318669160901
C           0.95261616276496    2.98636176736665   -2.32250047143571
C          -0.19092891988094    3.84411319960872   -2.33798432271699
N          -1.46557767591342    3.41914438402220   -2.73888139475204
O          -1.59942264644826    2.24623322407832   -3.04206840570234
O          -2.37735505427026    4.23562995177663   -2.75036118121985
C           0.21149803938601    5.13884195961797   -2.00014001336126
C          -0.50822746666193    6.32784802736393   -2.20308404815164
C           0.13117379110298    7.52622608390800   -2.40807611693334
C          -0.34923082809565    8.82797365124713   -2.60385603758221
N          -1.62691017590387    9.32656491206663   -2.71891397599313
C          -2.86990468939235    8.58965454784455   -2.68022941945217
C          -3.29728877744307    8.27754826779680   -1.24889665720518
C          -1.62688904984689   10.71301392275339   -2.90483197884345
O          -2.63785190563244   11.38123838219694   -3.03870735721582
C          -0.22733545421551   11.09251805905109   -2.88961188733862
C           0.52489101940221    9.92435480331097   -2.70546777449340
C           1.92809521017793   10.29156270217770   -2.63675546386467
O           2.93270232845950    9.64083904921914   -2.44220027029156
N           1.92564547515766   11.68804723484698   -2.81447179068333
C           3.15054304691464   12.45435949933665   -2.82996626183058
C           3.58792222458556   12.80497095540987   -4.24894626009278
C           0.65938161842020   12.18307926377447   -2.97036129192303
C           0.33931136943798   13.53874476497517   -3.18811429198213
C          -0.95541590696786   13.90798848295044   -3.39598195057355
C          -1.41230493164218   15.21028676827750   -3.67007526539189
S          -0.40714075228121   16.61909699290040   -3.55899033379760
C          -1.71414171157475   17.66143340645257   -4.01595121702460
C          -2.88772370593913   16.93465258797856   -4.21682211081178
C          -2.71137399661729   15.55691446856095   -4.04395564069033
C          -3.78371620846393   14.55090907472419   -4.30693551944468
N          -3.36547657649712   13.55766505646496   -5.35988989300056
O          -2.32411157284007   13.74113241059514   -5.93586844079531
O          -4.14457642878405   12.66898339164884   -5.57194136616896
C          -5.06300461749342   15.21380626016034   -4.83474426366927
C          -5.33319366730364   16.50481747746421   -4.07531800523620
C          -4.24636658457391   17.53403258990057   -4.41831033694856
N          -4.45560476727360   18.67654138073498   -3.47830528550237
O          -3.95254729320717   18.58895797099720   -2.38640201970899
O          -5.16259947859181   19.57267976670639   -3.85824024766796
C          -1.45464641831633   19.05244020763041   -4.14967879779052
C          -2.17397012778795   19.90594655052719   -4.92084154853086
C          -1.88159510691868   21.28786543405838   -5.00918499700810
C          -2.54652432133238   22.14265286887867   -5.83820549721948
C          -2.34097801630751   23.57563435505636   -5.96449834303845
C          -1.36870785587413   24.32248305739865   -5.35194579441841
C          -1.21469769696455   25.71489120674733   -5.52427881477477
N          -1.03140691159970   26.84400887504753   -5.61922317023736
C          -0.37075113477471   23.82401798216335   -4.48822876616472
N           0.47697382195789   23.49545843803964   -3.78675017772672
C          -3.34093817498704   24.08695352784069   -6.89411811247422
C          -4.12085369776596   22.99551366704989   -7.37365352061901
C          -3.64988326730534   21.74637047081313   -6.75932668203454
O          -4.06871850745396   20.62794018693127   -6.97854675550558
C          -5.12989277586932   23.17039101292169   -8.27695671251224
C          -5.41277368978354   24.47030540021600   -8.75095930531512
C          -4.64291691538570   25.56915168702969   -8.27044165882720
C          -3.60461799994458   25.35729365649370   -7.33506676342455
C          -4.93395278075557   26.86289564167492   -8.74902992769224
C          -5.93431090414862   27.06300155961257   -9.66093581054016
C          -6.68999828661940   25.98016122738843  -10.13507296972588
C          -6.43549984423816   24.71153191220929   -9.68917245786490
H           9.85799576702355    4.78604981841634   -2.87892037555117
H           7.79434114322385    9.22597009704200   -3.84869911438996
H           9.99466075359591   10.11528140268696   -4.39709397143416
H          12.42653913922327    9.81242410076541   -4.63922808511800
H          13.45883054744143    7.62564641306286   -4.17145811481377
H          12.06724251643963    5.72434625893919   -3.45484849540817
H           4.79396818383621    4.40562330272287   -1.24952578453321
H           2.60329617974519    8.82866916814475    0.79276871073263
H           0.70685479619992    7.09476856089860    0.10254876784354
H           3.04457894067135    3.31727621034013   -1.85133448556329
H           0.91234743608673    1.94040449030385   -2.56370607767573
H          -1.58028424738567    6.22379932531593   -2.29075986692673
H           1.20976361356734    7.49535346496280   -2.49078211404406
H          -2.76920889684700    7.67723715439576   -3.27104043116302
H          -3.61807374375440    9.23193939951852   -3.15359625774031
H          -2.52571865417542    7.72141755894953   -0.72176934856978
H          -4.20585465474894    7.68295363082815   -1.26213571624908
H          -3.49077307913896    9.20019781818427   -0.70675798429625
H           3.91086746902844   11.82750495322689   -2.35689815587981
H           3.01282636862472   13.35637797460714   -2.22694321819594
H           3.84738856418104   11.90051885420783   -4.79279744712405
H           4.46668150523642   13.44197320492962   -4.20942710182166
H           2.79798357263482   13.32587832404905   -4.78554217910981
H           1.13028585413122   14.27363415487456   -3.22384683897601
H          -1.71300127356502   13.13719860038013   -3.35662947637065
H          -3.99858200885508   13.95305021252145   -3.41363063280411
H          -5.89978285264618   14.52374212997025   -4.73095335160348
H          -4.94387585476531   15.44401000330323   -5.89684911637341
H          -5.31944914538912   16.30947660511548   -3.00004188539751
H          -6.31112408982983   16.90463196953661   -4.34560094094115
H          -4.40266943299032   17.91649470285483   -5.43249116756915
H          -0.57682448780749   19.42129706852250   -3.63371116629207
H          -2.98346763388263   19.55031305682969   -5.53691021472246
H          -1.10204036288745   21.66541521921136   -4.36107573067075
H          -5.70438597055102   22.32527323834270   -8.62605574872692
H          -3.04221738948414   26.21056824452853   -6.99113535568437
H          -4.34881369670380   27.69314928267314   -8.38186016308959
H          -6.14866769506922   28.05738091450188  -10.02262144738537
H          -7.47473974033243   26.15639518371954  -10.85533228103881
H          -7.01419495180902   23.87407169596526  -10.05037889478294
