101
 SCF done       -188.914934705380          0.000388498324
C          -2.44506410874648    5.41629403731934   -1.21715655322075
C          -1.10403181696018    5.50315035473674   -1.47414324862523
C          -0.56327481939265    5.68125600038194   -2.76484083546212
N          -0.07644567935518    5.87379822958502   -3.78621792477693
C          -0.11210577509994    5.37523008249532   -0.47917214998933
N           0.72106655110197    5.24606411434043    0.29960124120616
C          -3.49362513272907    5.26201253520698   -2.21692916874980
C          -4.64507353804527    4.70110676805793   -1.58707038871090
C          -5.77241890313841    4.39565880385002   -2.29541971032216
C          -5.80401311864865    4.65064137600320   -3.68436643773216
C          -4.66346688995755    5.22822079151540   -4.31638659069274
C          -3.50780853700462    5.52862751149348   -3.55999021316886
C          -4.71148825127949    5.48210916035230   -5.70227854686441
C          -5.82881194110256    5.17763815300191   -6.43136482960647
C          -6.94964870597997    4.60756748735228   -5.80890224245815
C          -6.93765112013424    4.34940027965089   -4.46484289863970
C          -4.39008306662178    4.54493677774175   -0.14770709869791
O          -5.09679081080037    4.05517036834507    0.69812585065891
C          -3.05778729562431    5.20103428433277    0.08152409933596
C          -2.72921589729557    5.58501048114723    1.33543119758893
C          -1.71369028446215    6.51062099279602    1.75748578685777
C          -1.27274330097785    6.56637547528689    3.04307171268838
C          -0.23988091095178    7.48112316226406    3.41844650512302
C           0.22408726868043    7.57189248412640    4.71946502277141
C           1.23268676522670    8.48123913788341    5.08000939525570
N           2.05397491686961    9.23153068145810    5.36511770521175
C          -0.29696404438286    6.77412603277657    5.75170912427700
N          -0.73013346789065    6.12369356354019    6.59311090449016
C           0.29023984730965    8.28689544383132    2.36378218077426
C          -0.21833065179646    8.18985504599335    1.10760587582572
O          -1.24703298271575    7.35424753867792    0.80120752863280
C           0.26778577902975    8.90618517891009   -0.03477579603915
S          -0.51317472736619    8.66996939626084   -1.56852264823308
C           0.64367181680982    9.67630057807590   -2.38157403885817
C           1.56584806148919   10.18984328401010   -1.46454737127545
C           1.34674085236115    9.75038295789541   -0.14782981894863
C           2.61933833273064   11.07025629796548   -1.77101685382945
N           3.48231051789825   11.80107300899046   -1.96164815019053
C           0.54757068170030    9.81802472696999   -3.78753732518294
C           1.43963615173037   10.47254967384048   -4.57577283958262
C           1.34916040416431   10.56231757023255   -5.98752928133278
C           2.28688713916901   11.15056073844655   -6.80936250392995
C           1.86794760229011   11.03412935215740   -8.16560630259941
C           0.56987944959098   10.33096443716250   -8.12837784672119
C           0.27746776496458   10.04984210353132   -6.83298174000050
C          -0.23856701917637    9.99179971578073   -9.21926230856064
N          -0.93364652109204    9.69680949259091  -10.08499863418592
C           2.53418062101762   11.45897120642455   -9.29139242536646
C           2.11708739398460   11.34775253921748  -10.64942664290419
C           3.09365202283534   11.87018955454542  -11.47222280493890
C           4.18392970038829   12.34273329591462  -10.62303853225250
C           3.85925267477920   12.11034029912393   -9.32687510615336
C           4.66874043812786   12.43503150252957   -8.23087583030460
N           5.35919681706975   12.71708323582908   -7.35783367414038
C           3.05143811964353   11.93285078093679  -12.88579988254559
C           4.06972231760256   12.40087329203113  -13.66077462668482
C           3.99010108627182   12.43856885315290  -15.07059156045483
C           5.00338465731202   12.85928292636860  -15.88624871205402
C           4.98994241124451   12.92028950313477  -17.33688181665908
C           3.91563520178081   12.69609191648744  -18.15924236809759
C           3.96500136456804   12.78794216384973  -19.56659151512106
N           3.93498550876380   12.84282362903888  -20.71279109734111
C           2.61106061742957   12.36473879042899  -17.73710487068324
N           1.52397937341988   12.10201096697363  -17.47612100031621
C           6.32721792991107   13.29968143916584  -17.77944017623031
C           7.14074146608243   13.52453824507910  -16.63218521287043
C           6.35128645392077   13.28577882188363  -15.41470998725480
O           6.73298973083921   13.40746177919419  -14.26929713697181
C           8.45101766598145   13.89442431253502  -16.73513106912945
C           9.02214763642926   14.05579901377073  -18.01670976579154
C           8.21692515223497   13.82968673336253  -19.17062724282944
C           6.86197752006080   13.45042857044079  -19.03198889998201
C           8.79785804737942   13.98980560605198  -20.44513392653490
C          10.11028869803158   14.35483203733080  -20.57521556619245
C          10.90191425314663   14.57685480080466  -19.43836569036019
C          10.36931395218377   14.43105959700613  -18.18611031476570
H          -6.62937668578885    3.96256336875639   -1.80152194866338
H          -2.66051393479846    5.97080284277661   -4.06061753481355
H          -3.84541988595645    5.91636902896339   -6.17959964397636
H          -5.85426059115657    5.37385923889542   -7.49250025370594
H          -7.82243836161599    4.37390831981496   -6.39955047219630
H          -7.79716348074259    3.91031791080765   -3.98028913443734
H          -3.35361627502048    5.18906304272413    2.12822520517216
H          -1.68039683030356    5.89376160080920    3.78075127821262
H           1.10222039718827    8.96293985871968    2.57171943607215
H           1.97556242579219   10.03907987740750    0.67474309355395
H          -0.29839519029484    9.31688042457605   -4.23796811553991
H           2.29996014183732   10.95103968427215   -4.12936089099229
H           3.19497900241103   11.61897907314954   -6.48418905072639
H          -0.60022264800530    9.53753654691845   -6.48626526648832
H           1.18829772481298   10.91900015826631  -10.97208743160553
H           5.08936775396771   12.80190664008975  -10.97224649722714
H           2.14546803445656   11.57219553295339  -13.35861642541192
H           4.98302752146336   12.75292631197122  -13.20634712150814
H           3.06326686861828   12.09711538533371  -15.51403736027986
H           9.04455318542349   14.05900543026021  -15.84804787517022
H           6.28227165070704   13.28414234283054  -19.92586656963448
H           8.18467842035532   13.81831431558559  -21.31762107899701
H          10.54610137238483   14.47440634889155  -21.55571864373194
H          11.93569906483849   14.86366933517412  -19.55975708308354
H          10.97357090256164   14.60046629932686  -17.30695499357289
