108
 SCF done       -195.401208643094          0.000955722206
C           1.61739179101547    6.90749915130175   -2.00846022337120
C           1.62860181954217    7.70807214339190   -0.89830249829161
C           2.73269092601946    8.50024997138268   -0.52281448916271
N           3.62444225957262    9.13574429448973   -0.17841297989277
C           0.52249964400048    7.87846662101074   -0.03951420294754
N          -0.36716421666765    8.08972373602846    0.65307546000357
C           2.65105122247165    6.84650986852512   -3.03425506085108
C           2.12874535983619    6.16695621733464   -4.17320230263838
C           2.88884638984745    5.93638837754821   -5.28363386813997
C           4.21956064444694    6.40953224028900   -5.31908691497478
C           4.73684047848520    7.12114669101900   -4.19888045842825
C           3.93668851897326    7.31890960253304   -3.05178260787636
C           6.05067579412728    7.62934742669047   -4.26501540253504
C           6.82056310331786    7.44001161743917   -5.38006938438500
C           6.31878773058978    6.71731517202302   -6.47331476776493
C           5.04627087162121    6.21431270428981   -6.44344808227377
C           0.73054909142295    5.78096586535045   -3.91755629810499
O          -0.04862618032220    5.24483313463253   -4.66575755324506
C           0.50143137958363    6.10026219503833   -2.46996035578900
C          -0.51830772359143    5.49807501452602   -1.81843991887010
C          -0.66537869154755    5.28879987071015   -0.39283312772103
C          -1.90017759830059    5.49019189493093    0.22146389618820
C          -3.19776707716387    5.88014111271044   -0.37438117765241
O          -3.47511018867502    6.04580675565039   -1.52846874960240
O          -4.09074950328949    5.99971460801690    0.63258500227621
C          -3.49238427311067    5.75412186714955    1.89546153935740
C          -2.07061418087429    5.40507070130035    1.59633142293515
C          -1.01101166452955    5.08232566426551    2.42404840783540
C           0.21110704059136    4.81967382623043    1.83238111421922
C           0.39542793392256    4.89241732141151    0.44833607336805
C           1.72177303483818    4.63372629015265   -0.08749682645782
N           1.99876217104413    3.88892380064536   -1.20941758345203
C           1.15204029477531    2.88905145175391   -1.81496242950970
C           0.78665372583823    1.78818502367091   -0.82540703366431
C           3.34848989965509    4.02803458442147   -1.59563052807618
O           3.81399693740287    3.48703522063824   -2.58269738135893
C           3.92073919466564    4.90226749965499   -0.60537019536537
C           2.89641532688595    5.21509490872278    0.33738469703012
C           3.44459605696963    6.14266749955670    1.30655695851466
O           2.96823241972345    6.65825198595605    2.29289173913345
N           4.76654015574557    6.35012133798970    0.86923114292698
C           5.65464160910652    7.23611425103512    1.58168160766772
C           6.67539465555909    6.46852179209681    2.41677837651032
C           5.05281482539204    5.63977692005942   -0.27310339141786
C           6.27258890200747    5.74711506581188   -0.99084552799196
C           6.48081304755800    5.05353077749464   -2.13848427439358
C           7.62835327831848    5.15818633081712   -2.96413018344175
S           7.68627059111624    4.24431618513874   -4.44210500160673
C           9.24017187130070    4.89421009406264   -4.86139461142433
C           9.67396849690234    5.78978291708703   -3.87689383571760
C           8.76518803753116    5.92987842789118   -2.81952922973099
C          10.84823404495824    6.56354724868108   -3.93139355350195
N          11.76147851727332    7.25705299433695   -3.92191073852683
C           9.86681111992333    4.48107622793231   -6.06164093749949
C          11.16786214753390    4.69425628328923   -6.39429192720453
C          11.69013487986903    4.22940873337813   -7.62501136519277
C          13.01000608954441    4.24834607636646   -7.96984088993003
C          13.58729032646270    3.81345520437595   -9.22927005605097
C          12.90568852529236    3.45869316347595  -10.36522312482443
C          13.52584581771607    3.05015976821790  -11.56485114703608
N          13.96448052773622    2.70649878096676  -12.56863716372176
C          11.50365643763471    3.46874516863914  -10.51549019847461
N          10.37290603522984    3.46033599627165  -10.71883528265605
C          15.03840605880030    3.86226468433263   -9.09380718445909
C          15.35997061042736    4.37261898945808   -7.80354088184761
C          14.11992091428243    4.64193863795327   -7.05623941525524
O          14.03212258527913    5.05817567062902   -5.92196733890171
C          16.65129406237043    4.53451158933651   -7.39174738112616
C          17.70281374496014    4.17947141536379   -8.26573470032685
C          17.39049945439034    3.66101690606308   -9.55585544527587
C          16.04333916313599    3.51070278760420   -9.95672613075285
C          18.44735441782471    3.30025687104992  -10.41655669791002
C          19.75011153774184    3.44319402201931  -10.02328808503503
C          20.05629416534337    3.95502954856577   -8.75337370635701
C          19.05455510229650    4.31645154812821   -7.89376677646622
H           2.47650605636671    5.40717671183586   -6.12948413108394
H           4.36337209321635    7.83838383429781   -2.20851875742015
H           6.43252811611979    8.18407207798506   -3.42028061918118
H           7.82154535282437    7.84418654099418   -5.42558588724786
H           6.94427849154833    6.56742866310366   -7.34060828689569
H           4.65255418212557    5.66552098815512   -7.28588083195732
H          -1.31655088698624    5.10382099216704   -2.44191292982533
H          -4.03891377292196    4.94490577363651    2.39215807468103
H          -3.57261795564204    6.65992682001582    2.50647299699844
H          -1.12542031936925    5.04165353681841    3.49512672059605
H           1.05939649110209    4.55884521374483    2.44580235794011
H           1.73370889149431    2.47966737675168   -2.64624541660804
H           0.24435534204023    3.34632554395668   -2.21956698040627
H           1.68536447182891    1.32461889482847   -0.42466599399435
H           0.19747831917026    1.02745282717965   -1.32921321743286
H           0.20283004548777    2.19003987608789    0.00052832427569
H           5.01566306677010    7.83686474894647    2.23425385813995
H           6.14790973978714    7.90596348111744    0.87254396826448
H           6.16523090856335    5.85054038375228    3.15150908941858
H           7.32074808461992    7.16789532675049    2.94062148072764
H           7.29001460588623    5.82445002877580    1.79102936658652
H           7.02278703330316    6.42598968540304   -0.61410045223254
H           5.71327623450503    4.37552786607535   -2.48738158240253
H           8.94396937514264    6.58245466284878   -1.98381324018384
H           9.24079369180219    3.91086582867763   -6.73845346372128
H          11.83716405652804    5.20194099466668   -5.71615236480871
H          10.97275850737964    3.81831435180901   -8.32443726060622
H          16.86636085996577    4.92600634637907   -6.40856467882091
H          15.84156688166703    3.11297719596860  -10.93855771529987
H          18.20673026326457    2.90768049977557  -11.39363657444966
H          20.55243497851020    3.16227072198735  -10.68891441279288
H          21.08988375992774    4.06087237132338   -8.45956212758775
H          19.28393152980216    4.71099349766238   -6.91475816268424
