102
 SCF done       -180.558969311903          0.003844088702
C          -1.32776017046229    0.20985962417526   -3.06664746518973
C          -1.07116969028509    0.69340617205828   -4.32360074469615
C          -0.47306519122479   -0.06538195912095   -5.35224218662600
N           0.00736119111759   -0.61693031455389   -6.23706387365845
C          -1.31904256977932    2.00265693826132   -4.78896566561720
N          -1.46708880051748    3.04186067260186   -5.25563776914598
C          -0.98252685842796   -1.12872959118038   -2.60458469594710
C          -1.26941868712592   -1.21382033697824   -1.21390662646437
C          -1.03755605311749   -2.35063991369271   -0.49443048152338
C          -0.50768399319195   -3.48381281911914   -1.15030782810267
C          -0.22703832203909   -3.41150440116950   -2.54545432261827
C          -0.46938925853089   -2.21676461469658   -3.26100185135400
C           0.29298867944217   -4.55060707923341   -3.19309813998029
C           0.52435619896648   -5.70643370593231   -2.49806081358850
C           0.24912562269991   -5.77589210132548   -1.12417801202594
C          -0.25457494533091   -4.68791968034069   -0.46439639243903
C          -1.83038626572086    0.06328621036846   -0.74509676521871
O          -2.14062996537740    0.32270807233068    0.39921686311069
C          -1.92843247217709    0.92837595328086   -1.94919720223518
C          -2.53015582498873    2.14794368882992   -2.07838766379688
C          -3.17602278896914    2.98749643049158   -1.14272190835275
S          -3.88466553084411    4.46001091639948   -1.77948264881861
C          -4.45264485968749    4.94460290544844   -0.22135829861177
C          -4.09345198022371    3.98828461429607    0.74524645071524
C          -3.37998864627248    2.90502438255978    0.22363756334888
C          -4.40916254571530    4.07152258704047    2.11235852422231
N          -4.65907204669314    4.10708839943844    3.23198652048101
C          -5.15950612162786    6.16372864116401   -0.10151284025930
C          -5.66013561678643    6.67780889051603    1.05463725265809
C          -6.34145303302896    7.91816466689012    1.09365190538237
N          -6.87015876997587    8.46319865726777    2.24113573741591
C          -6.90944115036250    7.84561528292285    3.54527068724469
C          -7.95939291223631    6.74062452515954    3.62406916401837
C          -7.44776886125916    9.72809809728767    2.01006654074747
O          -7.97749823353771   10.39541260536049    2.87277833757202
C          -7.23824624179572    9.95419683415344    0.59629643874675
C          -6.57338651213848    8.82445446349851    0.06022060449779
C          -6.36085155400541    9.07801381333347   -1.34484812963938
O          -5.85243766629110    8.40738631157134   -2.22284043314582
N          -6.89025446539672   10.36677447007513   -1.56247390755402
C          -6.94164378658976   10.89218499494156   -2.90626324770012
C          -8.36506714065387   10.90527202108737   -3.45569770029431
C          -7.40887201510070   10.90035889812881   -0.40764124604550
C          -7.95615790479104   12.19972462670121   -0.16324602121316
C          -7.96163264388881   13.28126466947339   -0.95191889988741
C          -8.51950216840127   14.58417523334870   -0.52218816146792
O          -7.71619544645133   15.70826435287780   -0.88763403792079
C          -8.77598110271642   16.33121917429546   -1.61404714892937
C          -9.69565427473998   15.12570443050664   -1.41011360549955
C         -10.96736271688983   15.33474182029126   -0.70230081310038
C         -11.90084441584499   14.37725178583785   -0.53378895697102
C         -13.19057835799787   14.49783685620213    0.14262808947073
C         -13.62806623051394   15.56102138865304    0.88136140613933
C         -14.88780211732247   15.62269465867391    1.51777630635503
N         -15.89550988960406   15.74040332270245    2.05393374206288
C         -12.89211270338275   16.74191675811182    1.12760837832426
N         -12.35389115127409   17.72511766643996    1.37187637733413
C         -13.92560710862736   13.26380322305864   -0.09644311012632
C         -13.09931592226947   12.36805136051480   -0.83568896559941
C         -11.80669992131934   13.00751183543190   -1.11339449625344
O         -10.86163152230173   12.53039702894890   -1.70714030669875
C         -13.53080723221257   11.12465267375960   -1.20077813342697
C         -14.83511769468796   10.71585708704446   -0.84561486047722
C         -15.67136192773204   11.60933944043787   -0.11526096576090
C         -15.19599029270818   12.88649866587606    0.25532870113456
C         -16.97479120898044   11.19401013026533    0.22609454318411
C         -17.43153230734052    9.95645408562391   -0.13644505786420
C         -16.60692435643600    9.07687838618451   -0.85424947574471
C         -15.33586184624940    9.44798170308167   -1.20058034382030
H          -1.25983806872700   -2.38458258087806    0.56173073307595
H          -0.24695713612519   -2.19783415046236   -4.31586481482915
H           0.50503724692483   -4.49147287483273   -4.25054925326413
H           0.92098256205294   -6.57408023009312   -3.00337258243150
H           0.43778738622604   -6.69594395353466   -0.59130692527700
H          -0.46792017754817   -4.73557730022498    0.59336653834764
H          -2.54614620360827    2.56280947491179   -3.07961373414776
H          -3.02353773874109    2.08438096119317    0.82057488074844
H          -5.29667445336741    6.71628570344743   -1.02284013348938
H          -5.53291879554047    6.14489619810663    1.98432212628329
H          -7.16350027502668    8.64567867498316    4.24585845579075
H          -5.92025386124784    7.45393323416058    3.79877269071391
H          -8.94338345078374    7.14300196925676    3.39510168162492
H          -7.97612213061287    6.32480741431679    4.62745851627541
H          -7.73701468230754    5.94076719324208    2.92251566383552
H          -6.32085688188057   10.21808835492152   -3.50451595899970
H          -6.48928097415236   11.88598660273802   -2.93586393386152
H          -8.75349643294234    9.88958246819004   -3.49167567387384
H          -8.36552901920000   11.30907357631846   -4.46493630959774
H          -9.02601070073397   11.50272710356785   -2.83321974492310
H          -8.36778029840131   12.28476072093212    0.83495580647938
H          -7.54850173389724   13.28708025320779   -1.94612543015751
H          -8.75089755858271   14.58959310785275    0.54898897382945
H          -8.48787933948089   16.54751999620326   -2.64470576390514
H          -9.11190525422845   17.24905880422947   -1.12251649180175
H          -9.82770375936032   14.50170103900541   -2.29448177089109
H         -11.12033141246808   16.31954300347086   -0.28180715952312
H         -12.88479574433760   10.46325581632312   -1.75825991583573
H         -15.85408569099272   13.54095829222430    0.80414718393151
H         -17.60544386009522   11.87318199229376    0.78077543625463
H         -18.43125157855676    9.64738984997501    0.12908541322131
H         -16.98378590883754    8.10305554976026   -1.13125030743716
H         -14.69637176003745    8.77482714658239   -1.75245611705554
