122
 SCF done       -223.915438651244          0.000506738829
C           9.63483002462965   16.23049435653565    1.02386174643909
C           9.57683258823825   15.88148395688524   -0.29534564985043
C          10.69601640143543   15.86183608005766   -1.15739010590119
N          11.56541906948169   15.82884008956918   -1.90506675579369
C           8.41292199150878   15.44828288864961   -0.96784157349669
N           7.51334287118641   15.05930347188481   -1.56510175771083
C          10.83648349392247   16.57246642397220    1.76870386016544
C          10.50685032253308   16.68744419934918    3.15114361543510
C          11.45034194112759   16.97614998862921    4.09655234697567
C          12.78973078484097   17.17199857214264    3.69592346403977
C          13.12618628763241   17.07040087351929    2.31389496421800
C          12.13038335316822   16.76870700356778    1.35846056757810
C          14.46683454949959   17.27084092516327    1.92517846858468
C          15.42968320630212   17.55463555076424    2.85497443534609
C          15.09760616898649   17.65253492817531    4.21495476418706
C          13.80589132716488   17.46583559908162    4.62664300433138
C           9.07118619603868   16.44928301092519    3.33902116691569
O           8.46298627519006   16.41754905666055    4.38680520373377
C           8.51329438367390   16.24880529203204    1.96505105049956
C           7.20555470841294   16.18448652326669    1.66797756679351
C           6.10919206247769   16.20172264793156    2.67576312306832
C           5.03218343383846   17.24197824761567    2.32037550268781
O           5.17919902585864   18.41688599707880    2.19241747519320
O           3.83825744744461   16.62079098952604    2.16454051913441
C           3.98990976465172   15.27177088276881    2.34527096544390
C           5.31010247764240   14.93517894699166    2.65296300143380
C           5.69392153204834   13.62624730475142    2.87085097386576
C           4.68586450455742   12.68646335013503    2.75928563313277
C           3.36735376459685   13.01819282014501    2.44149670955580
C           2.98218502937547   14.32975182204248    2.23604083686169
C           2.58355854454911   11.74498539868747    2.40538104231334
C           3.66036936142696   10.70955218712396    2.77023704595974
O           3.52240846483752    9.53036616628791    2.89340490869932
O           4.84449964798874   11.33533767042745    2.94607200447398
C           1.39910740750679   11.71059162117977    3.32282693472216
C           0.83201610169150   10.57439942778877    3.74979858228053
C          -0.31179009073079   10.57609379908005    4.60726781084291
N          -0.88926911942723    9.44364087425314    5.10564828752447
C          -0.48446971773630    8.08026969360305    4.85848024560686
C          -0.99922426094562    7.57296241476844    3.51385349331684
C          -2.02295313691586    9.73582753542273    5.90660112339999
O          -2.68236381405355    8.88953473460523    6.46341253858191
C          -2.11117628417498   11.17966499951498    5.86724752748552
C          -1.04554080522633   11.66535121143713    5.07784136520250
C          -1.13895910508976   13.10605035846485    5.06306943963273
O          -0.45102405113696   13.95625073813233    4.52861444112633
N          -2.26114424431280   13.40184946298814    5.85671520393648
C          -2.67886543434674   14.77653766416661    5.99915292239658
C          -3.88247158798093   15.10350967451865    5.11867256182662
C          -2.86495792677285   12.25665281858856    6.33910821042769
C          -4.01220726125682   12.08571070746173    7.14561783197237
C          -4.80797834628625   13.01847982607409    7.74191004538973
C          -5.95232880115216   12.70613179981148    8.51422928714691
C          -6.54909365526612   11.48491433387530    8.76796531042164
C          -7.69283113532889   11.68349180160152    9.58622111126775
C          -7.76888909001515   13.13692518499112    9.84446674183323
C          -6.73605209934763   13.72952771366083    9.19525774170604
C          -8.71980878962317   13.81534650368815   10.61470313748786
N          -9.47346915855374   14.41521157151368   11.24088776426865
C          -8.57418549657151   10.73099680549924   10.05011760241440
C          -9.70050495929678   10.93591850744273   10.90373834748724
C         -10.28212323373641    9.71882849360956   11.18588264743567
C          -9.55935370239946    8.69540446510167   10.44275293467182
C          -8.54193968755042    9.29007381336181    9.76420797704914
C          -7.66632442723752    8.62490851837982    8.89804966072539
N          -6.97479259551070    8.05448498493564    8.18000193672725
C         -11.41774301619582    9.52824588294555   12.01934795410710
C         -11.68898906602522    8.42082356995878   12.76482737612933
C         -12.90461354672615    8.14214271874065   13.50828056521668
C         -14.09347570292988    8.81543511162199   13.40147606906358
C         -15.25524234761822    8.48811365061648   14.13176606088828
N         -16.22978082963701    8.27474987033826   14.69984956585071
C         -14.33441200884217    9.90048644260256   12.53225183936924
N         -14.61162050016855   10.77088715101370   11.83668170163931
C         -12.66397551529372    6.96247253146745   14.33015018715967
C         -11.34126109972295    6.49573546928883   14.08197948264018
C         -10.68162744898079    7.37759987929211   13.10578335803939
O          -9.53223952302621    7.31260471926018   12.72680216992226
C         -10.83363406601855    5.39446750931620   14.70916922683871
C         -11.64407178119068    4.69086857817077   15.62763371097907
C         -12.96796019807557    5.15180806441260   15.88381852905416
C         -13.46378678646380    6.29914454475370   15.22327118873754
C         -13.76745325486310    4.44240709280972   16.80311894329672
C         -13.28468154586415    3.33087968084909   17.43861202804536
C         -11.98088967959448    2.87851263668948   17.18602098009120
C         -11.17802213465544    3.54387544405868   16.29964291866670
H          11.17511623473782   17.05344703504329    5.13791648347907
H          12.41544408238315   16.70296479970967    0.32044609476873
H          14.71800119345573   17.19291516326432    0.87769089124533
H          16.45359289148723   17.70507537046299    2.54779531730217
H          15.87059440251631   17.87682367753021    4.93443889228019
H          13.54425043736498   17.54022836628894    5.67187561865424
H           6.88185985965361   16.10412422344096    0.63874528642641
H           6.51885968683201   16.41708159679752    3.66965250595145
H           6.70545384948428   13.35268636148682    3.11777519060477
H           1.96668800320605   14.60777679925996    2.01065001803681
H           2.24093558293708   11.51639295290573    1.38701450794645
H           1.00909107804917   12.67370536164196    3.62451225049675
H           1.24374244397135    9.61973037091752    3.45702786073992
H          -0.92101670823377    7.48428270468047    5.66480754116007
H           0.60470054896045    8.00729759758530    4.91079498585181
H          -2.08542426552844    7.61514619145875    3.49164734233493
H          -0.68853538865738    6.54227513393818    3.36949015910022
H          -0.60946593285458    8.17319193314903    2.69480645231733
H          -1.82264763323115   15.37786493835429    5.67779884786313
H          -2.87522788374896   14.99676948334833    7.05122914648644
H          -3.62123822808719   14.96402707108362    4.07258154488334
H          -4.17619794878192   16.13916524370397    5.26650389534108
H          -4.72875503690297   14.46056505748981    5.34978909159114
H          -4.25473101113944   11.04127694050546    7.29652756254503
H          -4.58967740946024   14.07206480142630    7.65544695278224
H          -6.22262166847917   10.52902700191039    8.40942709739109
H          -6.51252396816437   14.78097755744293    9.17952803475657
H         -10.00413682330546   11.88316702433553   11.30557260352708
H          -9.82539018016015    7.65766983368100   10.39662483650637
H         -12.09489786946107   10.37256802291637   12.07340969606977
H          -9.82666270594455    5.06257450333820   14.50374652474036
H         -14.46706916975822    6.62676977080520   15.44482808759380
H         -14.77076900797351    4.79404548539209   16.99386759861451
H         -13.90529886304660    2.79360135579311   18.13994029233868
H         -11.61590462972120    2.00027911524128   17.69719114936324
H         -10.17330040699508    3.20056532335807   16.10092489235705
