115
 SCF done       -212.122672655425          0.000423315028
C           1.35191595313958    3.89605247055707    4.16556612260803
C           0.16208795444112    4.40208796478637    4.61495887678212
C           0.02569410530324    5.11833370474568    5.82195593698574
N          -0.12868032396700    5.71087602793025    6.79233465746134
C          -1.06912093181635    4.17804930084615    3.96359055867535
N          -2.09103748651480    3.98243260536804    3.47901970590063
C           2.59959508728217    3.85969288704734    4.91614186470542
C           3.41587393913574    2.81662982241321    4.38620157396418
C           4.63750510059434    2.52377283447878    4.92148377144776
C           5.10851162571143    3.27973661163175    6.01863969913135
C           4.30409792441703    4.33504697820187    6.53969818765317
C           3.03973514202352    4.61173116225175    5.97160215437539
C           4.79132455713164    5.08689427780327    7.62810386689082
C           6.01229448793532    4.80943935676950    8.17975498198870
C           6.80259623333144    3.76924890089879    7.66797103898979
C           6.36031703730625    3.02062864612421    6.61117810307017
C           2.73469302277748    2.19361898743318    3.23674240325199
O           3.08905449762361    1.24747484288553    2.57690544312797
C           1.52651693128877    3.04583512343742    3.00236777344990
C           0.88990929001360    3.01710548638172    1.80714730274255
C           0.03461946994085    4.00690020737058    1.25161327696859
S           0.13345848183114    5.71148056561432    1.65250784412166
C          -0.91696030716585    3.83741431094875    0.27218755638928
C          -1.48006934872937    2.70176587504829   -0.47985800239537
O          -1.19210245642722    1.53375152186161   -0.45886554975638
N          -2.46604460944996    3.27144791279568   -1.27928192173053
C          -3.26157526847587    2.50107409971809   -2.21178824239384
C          -2.55618415296226    2.36252507669476   -3.55630226710914
C          -2.58936581897234    4.64485442198163   -1.13166031461758
O          -3.37782352221253    5.33071132365002   -1.73933656833687
C          -1.58594376497175    5.01472111810775   -0.11809483579350
C          -1.13502931028528    6.15205098888860    0.52918850085335
C          -1.50240426609952    7.51493625133239    0.43454856513527
C          -2.48745446095160    7.98151808910474   -0.37781355085299
C          -2.81485532418318    9.35841329151001   -0.43848833520733
N          -3.81608116968378    9.87093870299497   -1.22119377854290
C          -4.73633010394541    9.11906589951535   -2.04110246363641
C          -5.83729887784919    8.47090737724612   -1.20630119594256
C          -3.91420453862069   11.27659264797230   -1.10786054223965
O          -4.70626187173811   11.94395219843922   -1.73072123101144
C          -2.87691585394847   11.62162228708158   -0.15352312269589
C          -2.21400505837529   10.43186582994208    0.22529877816304
C          -1.16347185029890   10.79158604604154    1.14879364002096
O          -0.35294612102662   10.12552112698885    1.76484503967965
N          -1.24173116297565   12.19230830585898    1.24740384098967
C          -0.37839418116155   12.88336662715910    2.17586441900212
C           0.98462426321922   13.19223821678876    1.55932599906075
C          -2.26344941981777   12.70304913371109    0.47598130898967
C          -2.66557518561744   14.05725936915395    0.33488733780907
C          -1.89794934373518   15.15908300608664    0.53344304087049
C          -2.34582002097623   16.49848758378349    0.40598780424783
S          -1.14200136128766   17.76613430486985    0.47517610395886
C          -2.33080257062864   19.03748602425136    0.34382716373429
C          -3.58428988732730   18.47747598670356    0.21288325826734
C          -3.60556371187027   17.06612172063199    0.25646086567954
C          -4.98964324939794   16.58204657817324    0.16993853054990
O          -5.38776596990469   15.44477350440671    0.18777448454800
C          -5.86388987408929   17.82323366026396    0.07035738011471
C          -4.92775258241752   19.00922865593738   -0.07406995366470
O          -5.22827602118015   20.12112119670616   -0.42218405069203
C          -1.94081724503377   20.40353918576995    0.36446593283584
C          -2.68014087857083   21.40688042354487    0.90622651627486
C          -2.39453306791499   22.82829048240595    0.82166576408799
C          -1.52699035387555   23.42588710055071   -0.05382215590957
C          -1.30807257421744   24.81811479529522   -0.12213555475929
N          -1.07801253974460   25.93856426184595   -0.21836219134877
C          -0.74926903624750   22.74281802460034   -1.01268739448750
N          -0.09290706543597   22.25418430610492   -1.81823895682093
C          -3.25781305934896   23.51372586577573    1.77298111811437
C          -4.09565800624550   22.54977199829320    2.40386033567462
C          -3.79306028806996   21.20914259097815    1.88354570278868
O          -4.28002135000725   20.16323585770008    2.25381906218127
C          -5.01691762088627   22.90264382964963    3.34832350360110
C          -5.14725350493657   24.26179925881252    3.70941679918236
C          -4.30867329735762   25.23188388210700    3.08711053945881
C          -3.36234378401789   24.83655138780166    2.11431978927668
C          -4.44254398645154   26.58459971600291    3.46089185920994
C          -5.36076949141818   26.96314460913248    4.40220367023882
C          -6.18676697664376   26.00760790089690    5.01308744002206
C          -6.08288395327739   24.68592127154357    4.67358409511053
H           5.23871605039654    1.72516160491962    4.51307005329348
H           2.45272174748264    5.42208759344169    6.37526307130586
H           4.17754026252013    5.88431753536340    8.02037405548325
H           6.37600945665708    5.38984477999705    9.01432541898986
H           7.76371517878933    3.56442563928680    8.11514076678770
H           6.96475300061385    2.21879060433455    6.21323305648230
H           1.10013339963951    2.16843977762835    1.16283181009582
H          -4.21584484591044    3.01914205323855   -2.33118757176503
H          -3.42528187339983    1.51694998625817   -1.76658290375696
H          -2.38425636385375    3.34262196483439   -3.99559055502400
H          -3.17088944226454    1.77818510348532   -4.23477873590070
H          -1.60110217982736    1.85849750873236   -3.42819489567722
H          -0.95080239720011    8.20184604841485    1.06388120410199
H          -3.04299079338085    7.29343157732337   -0.99831828711109
H          -4.18969316990387    8.36088193120658   -2.60726079024963
H          -5.17590278750862    9.83871835206334   -2.73730682155647
H          -5.41909041607612    7.75812848368806   -0.49970526277827
H          -6.52795514295146    7.94593346144293   -1.85969219008362
H          -6.38612081301852    9.23116961412864   -0.65567898810619
H          -0.23108934651395   12.20924813605199    3.02587310838340
H          -0.88016328083286   13.78716246907384    2.52616611002698
H           1.49481540590062   12.26158813667785    1.32502484142682
H           1.59068345798428   13.75388227575962    2.26485423354605
H           0.88636653465159   13.76789954831348    0.64129436811110
H          -3.68555819006913   14.17719311686432   -0.00982885945365
H          -0.84538062797224   15.06531483512914    0.75706279386926
H          -6.44114823626632   17.93524664062603    0.99199568092238
H          -6.58107127166188   17.75598609086709   -0.74919548372472
H          -0.96882177634124   20.62289057988409   -0.05994981595228
H          -5.64102204994454   22.15283041419110    3.81135327339213
H          -2.73768951909288   25.59302876074282    1.66629956935973
H          -3.80574352483533   27.31684613857744    2.98668760437649
H          -5.45615631703054   28.00174981797942    4.68117750799033
H          -6.90539157584012   26.32406086719035    5.75414741098482
H          -6.71603423762114   23.94574276716413    5.14046651127332
