112
 SCF done       -201.505143767223          0.000294631458
C           1.64081241054464    1.35635884169719   -3.11625830133773
C           1.08349461362214    1.16118904820838   -4.35264483832859
C           1.37083702542699    0.05348468022829   -5.17910369683516
N           1.55410034412353   -0.82267331230277   -5.89757722825007
C           0.19343820083877    2.03978765612113   -5.00702181276871
N          -0.51190667222785    2.70873230521750   -5.61867965640224
C           2.65166353254809    0.50351089881420   -2.50628890361101
C           3.12539065967499    1.14142370441583   -1.32546082326972
C           4.09515989593493    0.58426462053592   -0.54204661961288
C           4.64186562876092   -0.66541927345262   -0.90882044890253
C           4.16694688114372   -1.31530251791459   -2.08496812011626
C           3.16433087234189   -0.71160310122154   -2.87766945243263
C           4.71660079742386   -2.56412142374094   -2.43969172316874
C           5.68929657954564   -3.14411020097698   -1.67167287331438
C           6.15621256070740   -2.50340647622773   -0.51413429104338
C           5.64401276235187   -1.29037372372762   -0.14090012378076
C           2.41604068635127    2.41565173665559   -1.13057699242858
O           2.62108192281312    3.21571422053454   -0.24218922264856
C           1.40843466074691    2.48464959882670   -2.22289794505153
C           0.34899913493350    3.33526146149993   -2.35077051123574
C          -0.02007016612663    4.48966504346011   -1.62106622513838
S          -1.56541950274884    5.20840603190344   -2.02188341008015
C          -1.33774028946331    6.49647017366588   -0.89146898482020
C          -0.10209757767235    6.35414673039871   -0.23512592604887
C           0.62448080694956    5.23326290158889   -0.64796782085913
C           0.38295633556873    7.22553475494212    0.75550192775509
N           0.79956706906703    7.91962047680515    1.56920047022786
C          -2.34240651797436    7.48284649345377   -0.76879129641260
C          -2.25174205121703    8.61271361558478   -0.01281848243017
C          -3.29345177747410    9.56513731201529    0.04678764161025
N          -3.21731644873416   10.73442568504340    0.76122619396796
C          -2.12599803281943   11.16349776147311    1.60466330725126
C          -2.12981253276855   10.44585549841137    2.95148449379286
C          -4.38337049909448   11.51001095465092    0.62997877454903
O          -4.53694968447936   12.58799673011140    1.16407764862569
C          -5.23547611631891   10.73002341982041   -0.24536583607736
C          -4.54391710701247    9.54812077795391   -0.58375571885299
C          -5.39836277849610    8.76170574454362   -1.44881808480970
O          -5.23925031852990    7.68344268398412   -1.98655506665977
N          -6.56826407590689    9.52487116765846   -1.56813690671580
C          -7.65667935613692    9.09034811248093   -2.41077149371468
C          -7.64917832732823    9.80154806056896   -3.76163351234439
C          -6.49068564899846   10.70821448860805   -0.86694346829172
C          -7.52596270662448   11.66245315359867   -0.82527576104196
C          -7.40486958534283   12.86546902166964   -0.18921946451630
C          -8.41410558024404   13.85178235521208   -0.15411873238418
C          -8.27971493630084   15.12287997690725    0.37573277930119
C          -9.49392910050837   15.83909253808567    0.20102868313345
C         -10.42403044862912   14.90517888285668   -0.46620079262996
C          -9.76950038668094   13.73582778934920   -0.67980463337521
C         -11.74978034160682   15.14974783754524   -0.84274468887309
N         -12.83920734434428   15.30325445430435   -1.17345546026857
C          -9.76038032663924   17.14829173501732    0.53626829331156
C         -10.98063940557673   17.86268639462636    0.32909912621371
C         -10.80328551777902   19.17551501501908    0.70201708820931
C          -9.45284749320696   19.31331085915947    1.23238374633954
C          -8.82840380837897   18.10858016351406    1.14387095049818
C          -7.52473679677079   17.85162942165111    1.58432889923846
N          -6.45460345858547   17.67384576309203    1.96158186928092
C         -11.78674130070233   20.19923668515547    0.59884023910352
C         -11.54087003950666   21.50825582736993    0.32091464783496
C         -12.50018847280792   22.59838881286346    0.30603564917338
C         -13.75517891020681   22.57727017429602    0.85482429042848
C         -14.64353009605491   23.67304293963246    0.83664009976949
N         -15.40918127997324   24.52811913951880    0.84889825093928
C         -14.31429899399098   21.47745153950849    1.53975802383457
N         -14.82086915618404   20.63151251840371    2.12769547112957
C         -11.85857621931540   23.74644840639739   -0.32124097048881
C         -10.51192765575878   23.40209429669734   -0.63464182450362
C         -10.25498778849984   22.00703150814538   -0.24384720684477
O          -9.23725017275538   21.37402468462490   -0.42341154634904
C          -9.66041990555009   24.28750340341609   -1.23079734241180
C         -10.12549453680456   25.58325801105185   -1.54735891951158
C         -11.47311330898087   25.93375516195297   -1.24357501513524
C         -12.33162566740132   24.99563551311658   -0.62614330236409
C         -11.92847881877359   27.22707409909139   -1.57133591576487
C         -11.09431117223144   28.13210137420604   -2.16929780525548
C          -9.76755621247191   27.78634119772243   -2.46680054862721
C          -9.29314261460219   26.53932866146351   -2.16189550162828
H           4.43948225034630    1.09127557699748    0.34712310837822
H           2.82235961141866   -1.23202292439508   -3.75796392862580
H           4.35493380680974   -3.05263431130786   -3.33253221855368
H           6.10468155077838   -4.10033391934802   -1.95220916567566
H           6.92366158017258   -2.97592821617246    0.08037003057262
H           5.99963954053729   -0.79238062502787    0.74918533673468
H          -0.35950468902111    3.09747661509478   -3.13621128057928
H           1.58708915994924    4.96834223425972   -0.24828210158541
H          -3.24249910040129    7.30807457258837   -1.34528932766780
H          -1.35585787438779    8.81377717153089    0.55365857192862
H          -2.27064213127589   12.23624657579679    1.75980548575799
H          -1.17703269797381   11.00506596637986    1.08572798735425
H          -3.06760817822811   10.63012385859860    3.47007597064207
H          -1.31397506428658   10.81889090670350    3.56343183827546
H          -2.00375199641000    9.37306650015970    2.82529305833547
H          -8.60648763498431    9.24533937644494   -1.89137883846541
H          -7.51109442703419    8.01707880853782   -2.56161895590332
H          -7.74384346063167   10.87837741556702   -3.63910725569645
H          -8.47519431088208    9.44388029605352   -4.36993155370748
H          -6.71861078186001    9.59442172736327   -4.28420365495915
H          -8.44384097742853   11.41999578252420   -1.34068193452852
H          -6.47587864191388   13.10921981544969    0.30962363863010
H          -7.39381672849347   15.51366575366636    0.83679440634305
H         -10.18750434925582   12.86472283448400   -1.14905519082603
H         -11.87021323219811   17.44884240393520   -0.10468418425522
H          -9.04758201568303   20.20482926838021    1.66949103817413
H         -12.81334365729238   19.86856685884920    0.70437949787252
H          -8.64397895937168   24.00191030602560   -1.45798624890537
H         -13.34804591470987   25.28831888230588   -0.41547482050771
H         -12.95035434266239   27.48898416240437   -1.33941476381149
H         -11.45253997336755   29.12010571302771   -2.41659237086775
H          -9.12346605576677   28.51278052508717   -2.93920164015018
H          -8.27277864354426   26.26714740888287   -2.38890785015928
