116
 SCF done       -215.786180138819          0.000770764103
C           2.06307196581576    6.07795366336324   -2.04063881222573
C           1.28125135447225    6.69120426008684   -1.09858533072149
C           0.86313394458233    8.03644811876613   -1.16908471561508
N           0.48810374498518    9.12098685603616   -1.17157539856871
C           0.86108854977157    6.06778970564997    0.09377192865722
N           0.53737441230275    5.60642479364018    1.09450298616970
C           2.75602925871698    6.76585144440476   -3.12489187063968
C           3.86891161621277    5.97142612063795   -3.53054246142369
C           4.73325405659625    6.39085398866340   -4.50103683312239
C           4.51277605508347    7.63805119396990   -5.12698325951550
C           3.39021639860122    8.42683687728961   -4.73993208309838
C           2.51522658013946    7.97059764545413   -3.72710119879036
C           3.17919447268433    9.66519694281290   -5.37949239289602
C           4.03560146427861   10.10695113135382   -6.35098941164132
C           5.14089875013586    9.33047633291228   -6.73019451209487
C           5.37434128439057    8.12251825176837   -6.13117499315680
C           3.87575883218934    4.71244795942987   -2.76768424967584
O           4.68805253587325    3.81906182534716   -2.79686139002392
C           2.59867638983286    4.72872000811763   -1.98731639487954
C           2.10221469821448    3.55397921358664   -1.51823419922915
C           0.77082987181889    3.27506668806222   -1.12898021806463
S          -0.58119493466763    4.25584090101213   -1.60043730144895
C          -1.75305743475326    3.32581872343781   -0.69935927737957
C          -1.10847863481341    2.22732380325297   -0.10312263154744
C           0.29191955020188    2.22087928092970   -0.36623587066920
O           0.90295383146786    1.19914112150800    0.25047619807074
C          -0.08147147368965    0.54191432188001    0.91221057922019
N           0.25791238677032   -0.61446965370494    1.65944353473019
O          -0.66286455865666   -1.16873349126752    2.22964940441769
O           1.41600954548962   -0.96268402923452    1.67515749186226
C          -1.31838376246607    1.11097482636495    0.74527677982769
C          -3.03493592945392    3.91051469440751   -0.62174814432369
N          -4.21818709226495    3.38011039585614   -0.17928998018332
C          -4.49509014211101    2.02842699435803    0.24399599941405
C          -4.48667171710489    1.91990077936022    1.76751868526034
C          -5.25356552880951    4.34651735351203   -0.15257203914965
O          -6.38688505955982    4.09952595961545    0.19137911665303
C          -4.61772924063343    5.55845103578756   -0.61797685419504
C          -3.28514693886572    5.25590502681486   -0.94142843201041
C          -2.64618899361794    6.48769003075885   -1.33993775672366
O          -1.52361821944063    6.70822828316797   -1.76450812261333
N          -3.62201111673464    7.47699008484961   -1.16874881061305
C          -3.31220039116691    8.84984112673325   -1.49979555360672
C          -3.90562526643780    9.26125689025132   -2.84372528065297
C          -4.82227677548616    6.93815515054752   -0.75730086338458
C          -6.06207024547412    7.54052006043026   -0.45987644655852
C          -6.42138710463454    8.85564117928783   -0.40823170996375
C          -7.71501708596752    9.28810360795838   -0.03600066500499
C          -8.09694516907834   10.60179853920105    0.17089765755953
C          -9.45582114527633   10.63960310318788    0.58110382755223
C          -9.91879115153566    9.23747689689273    0.57834920698631
C          -8.87613175892218    8.44492415028907    0.22303578489610
C         -11.20469024327171    8.77373599285318    0.88168880181035
N         -12.24853635434139    8.35737709806546    1.11771869211146
C         -10.19289672022053   11.73644033996261    0.97457579181904
C         -11.53162588878927   11.75383213734074    1.45175853012240
C         -11.86387618792886   13.03743573038308    1.84017738912433
C         -10.71062770353470   13.89161054782750    1.58137787948326
C          -9.71566408383132   13.13107689510054    1.05595520627636
C          -8.45981839714317   13.60558695098834    0.66094684253674
N          -7.43796043509110   14.01834825670389    0.33671216318147
C         -13.09664930182610   13.42901031531327    2.41200167142279
C         -13.36249143146323   14.66348819758297    2.92562822688452
C         -14.60801746025935   14.96221556552934    3.51974207571109
C         -14.91457255414679   16.14324034409389    4.13683632548814
C         -16.17037945734929   16.48962294953794    4.77658518460888
C         -17.32830772297530   15.75454275972109    4.76981750276916
C         -18.52150179423339   16.15258186601319    5.40935485912015
N         -19.52360335455018   16.41385637655730    5.90474932913935
C         -17.51491180511092   14.51651716511056    4.11992283543772
N         -17.75276159153463   13.51201493684880    3.61644983844358
C         -15.99904994869190   17.78810964261442    5.41888068388423
C         -14.68506731680481   18.26403204707286    5.14365426042754
C         -13.96755096255315   17.27743976567852    4.32063738531154
O         -12.83565899862939   17.37481036867585    3.89391831472749
C         -14.23574348687785   19.46167957464166    5.62096513476460
C         -15.09516189747490   20.25329380677926    6.41485574689522
C         -16.41080124696673   19.78402308585357    6.69664189591991
C         -16.84895679171455   18.54081320831950    6.18575665791640
C         -17.25961887441805   20.57963943918385    7.49278695568956
C         -16.83086803489251   21.78084151492933    7.98853471771487
C         -15.53518799964146   22.24168811719066    7.71088382667115
C         -14.68592826019569   21.49456881176079    6.94031805511624
H           5.57523612971135    5.77873161156428   -4.78813274482318
H           1.66496596221693    8.57760440818827   -3.45804965653665
H           2.32898336049752   10.26116600912789   -5.08206173498964
H           3.86657019219910   11.05826416981724   -6.83281179151005
H           5.80617519701013    9.69423594636815   -7.49879504376954
H           6.22368875804784    7.52019474840533   -6.41846667475921
H           2.79167815176704    2.71562544579362   -1.49981268915697
H          -2.21395572802887    0.74002381391767    1.19603416053159
H          -3.77194411320656    1.36072683381995   -0.22472803831930
H          -5.49579827881209    1.78067216121304   -0.12324239402678
H          -3.55790199140326    2.30643356985934    2.18177331021823
H          -4.61295681322900    0.88424370622176    2.07118084411522
H          -5.31021449362225    2.50057934914988    2.17494617873266
H          -2.22024295751404    8.90809103065313   -1.54823816862862
H          -3.65297747020662    9.50321045403976   -0.69373326708494
H          -3.48927030023391    8.64406334688016   -3.63618269782244
H          -3.65975652669674   10.29933932857549   -3.04785446632477
H          -4.98761513607634    9.14849593937539   -2.85001245472687
H          -6.80956739481566    6.80089427720874   -0.20255643663926
H          -5.71486549697799    9.64306886512811   -0.62261451123363
H          -7.46437778625452   11.46144016922962    0.06512663875539
H          -8.90477757055292    7.37523195093915    0.13517348374446
H         -12.17098169111580   10.89566770732231    1.52052822407782
H         -10.66682469505489   14.94806132417317    1.76806905405043
H         -13.86305068153389   12.66394082633968    2.46039270487746
H         -12.61217129428028   15.43919638989661    2.91184624360405
H         -15.35377642318242   14.17761250218987    3.49289007553318
H         -13.23454132390008   19.79931126317547    5.39749633223731
H         -17.84924019726921   18.21391196345989    6.42078284230618
H         -18.25642163555849   20.22080060588983    7.70322058068964
H         -17.48835461422447   22.38299672701396    8.59744691450674
H         -15.21338260371323   23.19168431892288    8.11054942097052
H         -13.68722890408175   21.84432525865180    6.72333926523110
