98
 SCF done       -190.634759806194          0.000673760354
C           1.40590892269711    2.42977210456872    4.28216741579381
C           2.45047220066284    2.97546990395089    3.58071682791010
C           3.56138720084035    2.23541898259228    3.12731798231984
N           4.48509707399348    1.67593268653725    2.73885593001804
C           2.57320665934286    4.34964359524313    3.30353370240262
N           2.72726106057344    5.46759072563483    3.09053733980758
C           1.36431986331618    1.06380041016218    4.79592539836555
C           0.41271594387515    1.00738923941276    5.85621662430289
C           0.19113187835874   -0.14169324309461    6.55889700002759
C           0.91408700991628   -1.30786832911822    6.21915495805440
C           1.84887134617648   -1.26301603661655    5.14461324282712
C           2.06313624662643   -0.05667727217414    4.43779836769882
C           2.55716292859611   -2.43495411693228    4.81108892531850
C           2.35817745587123   -3.59551847867392    5.50841948257364
C           1.43997825876104   -3.63827892485560    6.56797624479353
C           0.73298839654645   -2.51907295135781    6.91537414074747
C          -0.22669461104537    2.32643283133521    6.00618735064548
O          -1.04108206973324    2.67573236135781    6.82993094178045
C           0.29938021660602    3.14600966010764    4.87717903122153
C          -0.31988107353368    4.31827578955315    4.56339318201254
C          -0.26209078960139    5.06560962406061    3.36634946857596
S          -0.44543848513711    6.78835366089108    3.45662040590755
C          -0.16774971694868    6.96625809045192    1.76006538759993
C           0.00590361661329    5.71865784922705    1.13833512151446
C          -0.04552568844047    4.64814897928179    2.04838888756010
C           0.02895077826393    3.20123106648500    1.73690767163584
O           0.91225954405911    2.64684471466426    1.13494648030116
O          -1.02496557038173    2.54069946203669    2.23316958163106
O           0.13829717425283    5.75037919604187   -0.19709897038150
C           0.34996614021598    4.57265346239666   -0.94401932597201
C          -0.09084408712834    8.21425720978047    1.12173303359905
S           0.21466797926344    8.35627573828846   -0.59223360488135
C           0.23643147548049   10.10771753922947   -0.55872983299085
C          -0.00022917263049   10.55222573162795    0.74825530174239
C          -0.18289020622481    9.48811584837871    1.67309545849498
N          -0.40017063388016   10.01877111130015    2.90251838211429
C          -0.35969676379128   11.39364195817775    2.78638990307759
C          -0.55654847691655   12.23466835062381    3.89038521670556
N          -0.72203133124157   12.92952320895318    4.78841567803542
C          -0.11709213941612   11.75615550507318    1.47640539486048
C           0.49051621569519   10.89323307218526   -1.69145725885200
C           0.69491872411995   10.39811166116955   -2.94556880369049
C           0.99819039436252   11.19311765224688   -4.06937531349511
S           1.25273928734748   12.89874486222160   -3.91029171093122
C           1.56567285045616   13.07906771641403   -5.60924044158317
C           1.55959470786938   11.82954254160871   -6.26024346487384
C           1.23069724611362   10.76930902179481   -5.38578839110157
C           1.21984923500712    9.33101836036110   -5.72509754172157
O           2.09549350299921    8.74532352738576   -6.31072944570022
O           0.12753633412224    8.69840584230849   -5.27100784681062
O           1.89986870183996   11.80915186056921   -7.54517875220831
C           1.66152158557926   10.68216154473262   -8.36070779357980
C           1.88054482363537   14.35115522190813   -6.12276582225424
C           1.65505570401839   14.79484908739816   -7.39942464754068
C           2.19734840117751   15.99471573985066   -7.99467705026745
C           3.22643167814917   16.75552192719557   -7.49778748002814
C           3.74694818331241   17.89672673582205   -8.14003248229906
N           4.21147386620175   18.83595780634806   -8.61047259071673
C           3.91999448504970   16.48792825329597   -6.30007908324836
N           4.54081105750013   16.32464820895733   -5.34733359986017
C           1.52588510544987   16.20229644967329   -9.27314104523920
C           0.59868162707193   15.14042251635271   -9.47373708525571
C           0.63628973641246   14.22988929896754   -8.31376933589741
O          -0.10111193178000   13.28754007682355   -8.10927470347595
C          -0.18003570219683   15.06637074733487  -10.59136226500198
C          -0.05880996854423   16.06525472876826  -11.58447837477541
C           0.86493725042993   17.13156410662166  -11.39006121067239
C           1.65350928669177   17.18560591146482  -10.21713584456722
C           0.97462426750178   18.12467597872983  -12.38417110858700
C           0.20996586412501   18.06873975032489  -13.51767715956329
C          -0.69955649941860   17.01828048994938  -13.70818022609383
C          -0.83037797831662   16.03757758305543  -12.76238285380293
H          -0.52535836620266   -0.16137459504921    7.36652663189942
H           2.76990125490892   -0.04982619231008    3.62274413209549
H           3.26613962774895   -2.39559526636378    3.99720962617432
H           2.90870229446156   -4.48697320782099    5.24782077203521
H           1.29582906274953   -4.56203236086447    7.10800933260257
H           0.02494549748587   -2.54587346302854    7.73069690362157
H          -0.97378078987736    4.71219262162236    5.33602894450680
H          -0.95029870506947    1.59084235590375    2.04586225872271
H           0.45956391594300    4.90551051653739   -1.97458047408270
H          -0.50967406759623    3.90024375110280   -0.86721213269397
H           1.25091809291697    4.04525466639885   -0.62493896760621
H          -0.54425532336629    9.51270358614297    3.76045975360828
H          -0.03708362981647   12.75761066485536    1.10503491574215
H           0.53006329655557   11.96353994089308   -1.53243018663253
H           0.61937273418234    9.33109173211027   -3.09615434307099
H           0.17778522647840    7.75429723246291   -5.49109798241362
H           2.37356642624087    9.87946728871281   -8.15559969597862
H           1.78584246825644   11.03813568096460   -9.38246603750190
H           0.64167743242144   10.31356940873697   -8.22661240134645
H           2.30658590655368   15.04309310730068   -5.40544462115495
H          -0.87935174160711   14.25340921246496  -10.72045577838666
H           2.33726712250784   18.01053936238614  -10.09438267668924
H           1.67727608504493   18.93104032928908  -12.23292831391517
H           0.30194912688800   18.83407337622059  -14.27379641650981
H          -1.29665014243549   16.99006210125926  -14.60751112364165
H          -1.52999940203678   15.22652262364677  -12.90375511342953
