124
 SCF done       -239.510746541414          0.000822892667
C           6.25372094954031    4.14818703297689   -1.96899504788083
C           7.40112968855053    3.68513631480960   -2.55312620368351
C           7.91985429854020    2.38710471165639   -2.36094470585716
N           8.38550012372811    1.34632718459061   -2.23427799791680
C           8.16545484967741    4.44035747117406   -3.46829517485905
N           8.78311768839430    5.00054818508132   -4.25672626630610
C           5.32243502119223    3.38523456624541   -1.15163660915578
C           4.16866898466706    4.18642619502921   -0.89825762764124
C           3.11257724807116    3.71494463304424   -0.17000206818735
C           3.16320219563581    2.40169223222791    0.34718650303729
C           4.31633504694775    1.59868067878325    0.10454195024982
C           5.39434616632701    2.11187159736123   -0.65191643473936
C           4.35685696593812    0.29133815712759    0.62965473726888
C           3.30905066597960   -0.20222143636066    1.35897204904723
C           2.17457473605099    0.58819896456338    1.59695611681521
C           2.10265517546458    1.86226822393325    1.10183075587761
C           4.34509504893327    5.50960717729819   -1.50671217365263
O           3.60183168363041    6.46656829816842   -1.44835624107604
C           5.68833419461739    5.47189075181750   -2.15276297605494
C           6.27811130180562    6.58653824953263   -2.65026363183345
C           5.57262570630265    7.80399336683097   -2.88448720337465
C           5.89547142227664    9.05333658910332   -2.40152722783225
N           7.01247988478562    9.33543345308616   -1.58790004008612
O           7.23649202924113   10.49612154509909   -1.31442047197896
O           7.68905834635832    8.38750066763456   -1.22048208039803
C           4.87816597879343    9.99868692774061   -2.78090235190723
C           3.91004619869325    9.32843909544362   -3.46117339812592
C           4.27951604779712    7.94683509597922   -3.57955699967497
C           3.66041591276488    6.93062781350423   -4.28264427177108
C           4.30817006779658    5.81266071757965   -4.87967584068445
C           3.37457109197923    5.07422668878682   -5.55048258991495
C           2.08616357015762    5.65876764191081   -5.37025207394241
N           0.95441697287118    5.03945244956640   -5.93444586762903
O           1.10728922816637    3.91415282183493   -6.37531668669608
O          -0.10657572486477    5.64143931554698   -5.97426343117536
C           2.21187934010028    6.81121979065229   -4.57075619413553
C           1.30712333797594    7.65674075921062   -3.92180138218898
C          -0.06230388698996    7.75911589436371   -4.05558894200407
C          -0.79233651450519    8.77875837260177   -3.43039192172734
C          -0.31026149053648    9.89358166636355   -2.73763668628668
C          -1.38575315934152   10.72167545254711   -2.37865993596470
C          -2.61247134746455   10.03970660688833   -2.85002204391398
C          -2.24328889769322    8.90063397777998   -3.48837189915528
C          -3.92575349583782   10.49699030617436   -2.69041040721993
N          -5.00851822293869   10.85861122281556   -2.56641931707263
C          -1.31856698513855   11.96854825965988   -1.76850331393324
C          -2.38083730756285   12.79853380130169   -1.37234185491911
C          -1.87023735460266   13.98807234817325   -0.84741755533726
C          -0.41682669800222   13.90761630290315   -0.91470692992237
C          -0.07573613830209   12.70965336574857   -1.45418983433479
C           1.23343480038010   12.28570069837788   -1.71246843466753
N           2.31228054222308   11.95628611935461   -1.93008740256311
C          -2.63659010504167   15.04922524331285   -0.34956349338177
C          -2.10637594913060   16.24703352725773    0.07366706954451
C          -2.83053543608363   17.32590768093138    0.59271372113326
C          -2.43000608568134   18.67011864296433    0.59157308685342
N          -1.18826769675626   19.20601347156561    0.20093323004258
O          -1.06819934397000   20.41658781854812    0.24061798465855
O          -0.29988556035589   18.44118846221614   -0.14184189636623
C          -3.52148833963001   19.48844263402362    1.00277306569532
C          -4.60362612958172   18.69357133913802    1.25018875263185
C          -4.22787950272322   17.32567510716839    1.07255694666322
C          -4.95745875224370   16.22811676076658    1.49145180271041
C          -4.42674390120957   15.04167367754047    2.09164060008072
C          -5.44648312814478   14.35012416494850    2.67395965671204
C          -6.68034504649765   15.02092519973410    2.39377015787818
N          -7.93236006815154   14.51540944205787    2.80215390630330
O          -8.93843119046490   15.11585968485252    2.46739826529757
O          -7.92662988972022   13.50545583981803    3.48060627293915
C          -6.42443656242499   16.16717428437993    1.64588358805619
C          -7.35856579621726   17.00719967525904    1.00306340988974
C          -7.06091184201521   17.76150490946399   -0.09676623421122
C          -7.98094395865281   18.64718529513965   -0.69519214239664
C          -7.65883815332645   19.46639745014873   -1.74257537778388
C          -8.53665584747061   20.39539885390527   -2.43130649052026
C          -9.79931700273425   20.76733740502559   -2.04808119813484
C         -10.60097839542080   21.68640109848855   -2.75894435463675
N         -11.30279519405782   22.42321594364514   -3.28946018906136
C         -10.46487760919801   20.32909819398423   -0.88328252264828
N         -11.06159107559306   20.03455496054820    0.05199333697541
C          -7.81594364124726   20.91243626785430   -3.58869414137588
C          -6.49096678803205   20.38773050405879   -3.57272115870245
C          -6.32581558492090   19.50378045963773   -2.41242833047083
O          -5.31013152762210   18.92868795457671   -2.07411263542878
C          -5.57446447980148   20.71034309003234   -4.53327970055297
C          -5.94995324138109   21.58306341642039   -5.57787277586083
C          -7.27604552772304   22.10564660404536   -5.60619249218786
C          -8.20147146477877   21.75771041190474   -4.59544150526865
C          -7.64180113347047   22.97254886372439   -6.65561660940805
C          -6.74225493250312   23.30876536155842   -7.63091471774230
C          -5.43724899248281   22.79441407910857   -7.60175574554590
C          -5.04902251800184   21.95002921152769   -6.59692061721258
H           2.24804281439011    4.33693999913394    0.00901614159216
H           6.25699565763643    1.48494530345098   -0.81404728019356
H           5.23164924499775   -0.31367324455399    0.44287499432212
H           3.34893961587388   -1.20501867760056    1.75643764079254
H           1.35783044061303    0.18275223224267    2.17475253929352
H           1.23176297861718    2.47494554571775    1.28249634817363
H           7.34854456860086    6.60850213052797   -2.82285891349299
H           4.89867962608015   11.04340553149022   -2.53586599103692
H           3.07165297033871    9.78660126300658   -3.94883584781788
H           5.36909600638244    5.65150753973227   -4.89470697726565
H           3.54388491255042    4.19100204135836   -6.13788739405556
H           1.76894126435329    8.31832611839246   -3.20338777543221
H          -0.60394205489770    7.07423822908710   -4.69211242863121
H           0.71689162380560   10.11001143205392   -2.52434904963809
H          -2.89312396611315    8.18782486601655   -3.96072937279292
H          -3.42252872815151   12.55668351871910   -1.45415997060243
H           0.26591662547462   14.67282209988834   -0.59690776879553
H          -3.70989594439566   14.91003254072233   -0.35268120857548
H          -1.05110840862226   16.42998337160618   -0.08330128904901
H          -3.46393501684799   20.55682326500741    1.09291787457766
H          -5.55033593077488   19.01885225985578    1.63509027952367
H          -3.38056749294414   14.82074813089335    2.17867559004701
H          -5.37919803302169   13.44874462932570    3.25321065469416
H          -8.37435837637612   16.98590673895496    1.38039984410431
H          -6.08392060026470   17.68603704226361   -0.55185962575327
H          -8.98275276216480   18.67153405796737   -0.28599613586030
H          -4.57533720648272   20.30224499276708   -4.49579593449416
H          -9.19687646793471   22.16887623176508   -4.64797603486070
H          -8.64694831795333   23.36723514001620   -6.67356388521652
H          -7.03184732496612   23.97368697499795   -8.43051490180797
H          -4.74107889418821   23.07057465204777   -8.37925360680178
H          -4.04565071869256   21.55139272945817   -6.56871540353548
