119
 SCF done       -223.179801958416          0.000800043551
C           1.22416671376518    1.77463090518498    1.59309766411301
C           2.10845207021294    2.61426583797593    0.97107267689064
C           3.18133298341520    2.16785668480262    0.17014536319512
N           4.07513719778451    1.85885286823603   -0.47857143580538
C           2.08599731990879    4.01367160154334    1.12058664661233
N           2.09155364560430    5.15623258311499    1.23520006665318
C           1.30718460029868    0.32135588400329    1.61173723425953
C           0.55293206040344   -0.16785806679616    2.71977488183167
C           0.47293374752166   -1.50295965149738    2.99807608955369
C           1.14358271976456   -2.42159161264357    2.16026068562213
C           1.88036627987241   -1.93888052310433    1.03856986225470
C           1.95284680885212   -0.55158152590397    0.77819424757327
C           2.53283464150620   -2.86865398503178    0.20374459215755
C           2.46603193197582   -4.21044380931999    0.46432467061691
C           1.74338123379691   -4.68435801408922    1.56970783740254
C           1.09652107353695   -3.80928678956264    2.39977541667826
C          -0.08048559105224    0.96049119678345    3.41440047274768
O          -0.73604911085586    0.95966209457279    4.42805042220904
C           0.20058941072754    2.15527262084549    2.54800693609169
C          -0.54778753032055    3.27002767958114    2.72402656713652
C          -0.74650781304309    4.37094042974319    1.84426186279153
S          -1.16455934061267    5.92945546604924    2.47070135949573
C          -1.28022048276556    6.62212508775252    0.88186471520542
C          -1.02903560504969    5.65674091431092   -0.09539950978208
C          -0.72912030155127    4.38631516429290    0.45127998790761
C          -0.51907404426419    3.24735360068603   -0.34465967086597
N          -0.35859634390560    2.31306588734008   -0.98975036227004
C          -1.05803079064612    5.86665592721709   -1.48405523694451
N          -1.07725967582563    6.00681753307427   -2.62261624980132
C          -1.61659511016035    7.99066797745419    0.75871815092627
C          -1.75862411198204    8.66235378963554   -0.41771042548325
C          -2.14922414241453   10.01856178367848   -0.46455275588164
N          -2.32858713833397   10.72200424712160   -1.62682747001689
C          -2.07465090042797   10.25267255647379   -2.96964414316182
C          -0.58398196593098   10.24462294169357   -3.29586187294212
C          -2.77875876678087   12.03699149796516   -1.38379703298105
O          -3.03436405203135   12.84168778587101   -2.25183337543253
C          -2.85800239450174   12.11469852522555    0.06079434714626
C          -2.47364320347555   10.87898089090547    0.59850176203120
C          -2.62192869859219   10.96852663595391    2.03988078384398
O          -2.41290766847940   10.16046437774042    2.92121039358496
N          -3.11516064429951   12.26555436880887    2.27092173604969
C          -3.32905987214566   12.73163441545831    3.62213807194310
C          -2.22659461730431   13.68129101792195    4.08034562657891
C          -3.26730302805100   12.96790600983468    1.09899658842100
C          -3.83209503305207   14.22370389214509    0.83069209477190
C          -4.40522264574471   15.13813844434346    1.67745915493292
C          -5.11161890341018   16.26432496797139    1.22702862867283
C          -5.34068102290841   17.45538496980222    1.92444553110216
N          -5.02126397537117   17.74185016758238    3.26004087992632
O          -4.51162517579637   16.86287250225352    3.94248331918764
O          -5.28186305940092   18.85735021450393    3.67523077770901
C          -5.91661099565422   18.41489917828813    1.03764954970432
C          -6.03039346563176   17.85903997676145   -0.20296712494891
C          -5.60540029851634   16.49671980986572   -0.14329002314564
C          -5.80647649524786   15.52651461181655   -1.11272234596125
C          -6.21270873804019   14.17327252025773   -0.87016682412260
C          -6.55958980691921   13.59700206880489   -2.05293646135671
C          -6.31708338749983   14.53273679834149   -3.10872276996076
N          -6.49445673269521   14.20301452356566   -4.46619542991048
O          -6.25621011992544   15.04925666743699   -5.31037593214408
O          -6.89296565327988   13.07935372843412   -4.71639976531972
C          -5.84603228892751   15.72870692555229   -2.57021942649811
C          -5.33368889817864   16.84403718359347   -3.26730087101382
C          -4.45895447053266   17.74319679758664   -2.72703476515710
C          -4.03356545125151   18.90108850108177   -3.40952424083341
C          -3.26448300671556   19.87644449846501   -2.83370931867447
C          -2.79575485826136   21.10194283125085   -3.45384795200230
C          -3.02869621106536   21.51628537429922   -4.74029177960692
C          -2.53729645665321   22.72249046445183   -5.28374354606068
N          -2.17067092852243   23.68533179271012   -5.79004696077595
C          -3.78923760603642   20.82573104836584   -5.70765348771005
N          -4.39588904186997   20.33774691004070   -6.55150924587842
C          -2.02672020377039   21.84027985813250   -2.45773821264320
C          -2.02354915370433   21.09829545818417   -1.24186724653488
C          -2.78688175965762   19.85586764391114   -1.42198912186013
O          -2.98519094382586   19.00108770572455   -0.58103265578210
C          -1.38972221133248   21.55065590817683   -0.11974499261191
C          -0.71324002119057   22.78955619658717   -0.16325520399118
C          -0.70652396907096   23.53622387060489   -1.37715188641922
C          -1.37366426467318   23.04282302026997   -2.52195715680431
C          -0.02753529929319   24.77102050822780   -1.41087477399031
C           0.61369915710856   25.24745642331438   -0.29968850171558
C           0.60531396696237   24.51216897421601    0.89515939205661
C          -0.04397719254348   23.30921620816856    0.96220266698627
H          -0.09785153215782   -1.85434414275525    3.84473237384497
H           2.50125194604757   -0.21057956925184   -0.08570579274297
H           3.08958869242644   -2.49873395837017   -0.64432059603242
H           2.97002095753698   -4.91464427311585   -0.18028052668679
H           1.70071539524302   -5.74626645775145    1.75963095299323
H           0.53788168790088   -4.16866235159264    3.25145248556096
H          -1.11737816811468    3.29990659354586    3.64896827463551
H          -1.77979034751716    8.51881207565902    1.69034263929616
H          -1.59082022402753    8.15596090530047   -1.35542029109778
H          -2.59424023306855   10.94814465381642   -3.63429712401739
H          -2.50297838859977    9.25526529839200   -3.09789597051803
H          -0.17336446559788   11.24664158051037   -3.19758829202092
H          -0.43898234146555    9.90772939271985   -4.31787264811928
H          -0.04025809141656    9.57722875360817   -2.63116962443738
H          -3.32579921043680   11.83584346932514    4.24996794347420
H          -4.31180258211940   13.20383415715059    3.69429468016325
H          -1.27018953533825   13.16403139006784    4.09442035459342
H          -2.44695098021179   14.03711053845604    5.08231880620258
H          -2.14646045276436   14.54185030019287    3.42108676528821
H          -3.81660039414023   14.45400864634924   -0.22775052127950
H          -4.28199159412286   15.06564324437176    2.74857920643106
H          -6.19786402658439   19.40712573005572    1.33578654641433
H          -6.47583362244132   18.31697153156932   -1.06478576043205
H          -6.33669366797228   13.74499497022200    0.10567918162606
H          -6.94954121404076   12.60979910052957   -2.21227510836958
H          -5.62396152231760   16.93998507548260   -4.30721173279994
H          -4.06321815200046   17.58049525508244   -1.73551555115505
H          -4.36899818896761   19.02195199121017   -4.43159185007663
H          -1.40729125408909   20.96986207964649    0.79053644767134
H          -1.35044537890280   23.63477522585478   -3.42279346021177
H          -0.02456602652633   25.33402631761125   -2.33263093404457
H           1.13067131099923   26.19458044952355   -0.33540561957907
H           1.11560562364719   24.90387879713747    1.76222164158997
H          -0.05477889077403   22.73889927463645    1.87936095439095
