86
 SCF done       -170.343717186746          0.000639959296
C           1.26836173481622    0.67678163940560    0.16695735761058
C           0.43004253083781    1.16828625694426   -0.79270130261772
C           0.85567831847095    1.53922193497837   -2.08525508245229
N           1.16002464159730    1.85402005370515   -3.14602457322645
C          -0.97103460489946    1.24373921661426   -0.63810700409512
N          -2.11730311691104    1.23976854531008   -0.58729105966513
C           2.66336012006224    0.30020887971298   -0.02720600234853
C           3.03596822058283   -0.61692110402332    1.00059473439422
C           4.28116572613336   -1.17684170414486    1.04504854023178
C           5.22831744704791   -0.83014386514523    0.05617817382375
C           4.86878743360441    0.10208800305337   -0.96071678835994
C           3.57024788487907    0.66012580855513   -0.98764909333724
C           5.82818936496322    0.44736197691963   -1.93439043233084
C           7.08050012877163   -0.10323218597997   -1.90962742438100
C           7.43231739990456   -1.02339497835891   -0.91041508273021
C           6.52619051176988   -1.37911569139836    0.05117471950768
C           1.90829095459507   -0.79957575588351    1.92861812948712
O           1.82876521301259   -1.53528167120250    2.88326381887020
C           0.87772892249139    0.18866509431290    1.47854212117982
C          -0.09251083221734    0.57855448962188    2.33578108956104
C          -0.90683527549474    1.74083704821481    2.23671372784548
S          -2.34886631096956    1.95445227770380    3.21529150703692
C          -2.48029000901138    3.52749063993932    2.44632409392407
N          -1.50596601460924    3.75428355188215    1.60817011131340
N          -0.65505842716804    2.78161294278857    1.49103750291621
C          -3.54662221825860    4.42371195237018    2.74372709410319
C          -3.67218439416895    5.60659259926249    2.10516121368047
C          -4.68801102612738    6.59850483142614    2.31289062869418
C          -5.68446595566694    6.58520782201918    3.27972180643060
F          -5.77690731360930    5.57155715308650    4.15559164934753
C          -6.63178426861990    7.61022406864021    3.41504597008849
F          -7.53390191226924    7.47084908986496    4.40288177163125
C          -6.68830950041275    8.73932318697973    2.60699844269032
C          -5.68609458047169    8.79194317436731    1.59904530691257
C          -4.70947428195573    7.74282413587313    1.46651021489910
N          -3.85707727237057    7.97887779016010    0.47274704076193
S          -4.23724685806765    9.36889101585814   -0.22693924645620
N          -5.50101205821994    9.74924446883472    0.69125500442171
C          -7.69355809345261    9.74216672735969    2.83069020251939
C          -7.84171482480938   10.86013145643997    2.09666878894169
C          -8.84040333613139   11.87525921780475    2.32355684956030
C          -9.02854277181864   12.90674126073763    1.39303156111171
N          -9.93141564100933   13.85316858539362    1.53851659106405
C         -10.69686843517800   13.79098110412307    2.62241630569448
N         -10.57419725853184   12.90163516953276    3.60182712150193
C          -9.66348570582121   11.96330406850971    3.45500149847304
C         -11.73745072316906   14.82255772168756    2.77890781499278
C         -12.99411496380104   14.60421209159885    2.36991788266643
C         -14.16899523326622   15.47119648802907    2.44240343867695
C         -14.21767690217862   16.72195045315719    2.98742502046045
C         -15.38117704087997   17.52111256317103    3.04145182322908
N         -16.29106804139605   18.21612627711943    3.11524846249644
C         -13.11779603912163   17.38753839508077    3.57265320790492
N         -12.27147321123773   17.98745652887052    4.06276505378188
C         -15.27830785906154   14.74875758719041    1.83691840438160
C         -14.82457235330082   13.46759853796499    1.40332161387020
C         -13.39478055130440   13.32211474417876    1.70986587280373
O         -12.67134028776334   12.38217989111672    1.47588041436484
C         -15.66230344575163   12.57364897625661    0.79905783244063
C         -17.01526120866794   12.92319099589544    0.59529791518926
C         -17.47617934965456   14.20301618346248    1.02189334908913
C         -16.58836583162001   15.10793708141909    1.64465749849581
C         -18.82853105411038   14.54299287500023    0.81030081429204
C         -19.68524628396930   13.66245135351983    0.20836031523020
C         -19.23072474078247   12.40226039776030   -0.20961148395908
C         -17.92452026899692   12.04053359204650   -0.02053554564419
H           4.54090749046954   -1.87550376972291    1.82647759687385
H           3.32476860945557    1.36987988837083   -1.76220716851189
H           5.55172216810178    1.15338968038067   -2.70350960358511
H           7.80762845035929    0.16667590644751   -2.66070355788065
H           8.42489072579055   -1.44830495375463   -0.90645922518696
H           6.79132048863732   -2.08660057884788    0.82314676081901
H          -0.20967323461806   -0.01407532186105    3.23599220381591
H          -4.24242017865121    4.09237846012635    3.49818339721896
H          -2.94828786776068    5.85722057952505    1.34204499857292
H          -8.36189463469995    9.53856826450491    3.65585316163611
H          -7.17837603579354   11.02830673891053    1.25948970626012
H          -8.42511346869432   12.96516576818632    0.49507734676158
H          -9.58175876896220   11.26876241786125    4.28058060363512
H         -11.42472246156030   15.74956697173595    3.23875006876160
H         -15.29451800983127   11.60939035980263    0.48103476980423
H         -16.96743394312580   16.06850894433779    1.95581173983493
H         -19.17367308362347   15.51379779034003    1.13421534155596
H         -20.71882378024794   13.93161098902940    0.05083863700141
H         -19.92109558774145   11.71990016245159   -0.68229002403232
H         -17.56896574286434   11.07211868552749   -0.34046405637003
