106
 SCF done       -196.911190511905          0.000793063190
C           0.57809336908134    5.19670700084016    2.70106798580875
C           0.15660695855328    3.95866129169823    2.30154881518499
C          -0.69005200934190    3.13335992913991    3.07192182988248
N          -1.39038608883347    2.43210683640021    3.65072693260064
C           0.57463455976372    3.31766233525104    1.11650801690138
N           0.90362672211610    2.71571675725191    0.19614417209054
C           0.36914775763223    5.77905368416943    4.02062044922854
C           1.31234301206630    6.83194069698979    4.21012893819382
C           1.37700224360166    7.53538863330639    5.37866897278719
C           0.48244610863116    7.21862162827776    6.42515452594838
C          -0.47315526298704    6.17798167759915    6.23654757206813
C          -0.51544489687230    5.46350474040805    5.01809826058585
C          -1.36432053419331    5.87569542559051    7.28662414252293
C          -1.31369655160401    6.56464407957822    8.46750328899240
C          -0.37201441822557    7.58828231711169    8.65260790462278
C           0.50689961943671    7.90801450773781    7.65368702622774
C           2.11522231539970    6.99967809196010    2.98612287111583
O           3.02758854035301    7.76533142912121    2.79027475904522
C           1.50493916159908    6.06428585838838    1.98983380050377
C           1.77032532796979    6.21041126729718    0.67661331090569
C           1.02621644176102    5.66080202352111   -0.43104978900648
C          -0.33833068447728    5.63128837145389   -0.51266817045024
S          -0.89943099423720    4.98460802497801   -1.99749903394359
C           0.69688067891681    4.71719119050423   -2.53298646424710
C           1.62745011972371    5.13246310486809   -1.62124105804015
C           3.07445475574903    4.97877248168828   -1.77506258708682
O           3.90276473062781    5.26807271844188   -0.94862092319889
O           3.38410303493184    4.45734268509279   -2.99020270086408
C           4.69554470095693    4.21253106505970   -3.26570779683183
C           5.02183964584567    3.66648150682769   -4.44581110209981
C           6.30164040158955    3.30571997701192   -4.96167534078003
N           7.55638209770028    3.52361952382543   -4.44286041015101
C           7.92513095857999    4.16562883472777   -3.20441360700617
C           7.82435316332533    3.21299445799678   -2.01540862356497
C           8.56368411533948    2.99782436661440   -5.28053159719513
O           9.74962596153343    3.07610110552347   -5.02396232102683
C           7.85080528440241    2.42546430502292   -6.39615511713888
C           6.46610181222123    2.63967452960393   -6.16799303440209
C           5.73252346690344    2.09019395106209   -7.28370911191837
O           4.54780170065513    2.04049224826157   -7.54070871113966
N           6.73679187471689    1.57703795238766   -8.12988385722074
C           6.39974367861076    0.88331534352444   -9.34794016931952
C           6.47872401482963   -0.63253420685923   -9.17920023134800
C           7.99891504978515    1.76610453432317   -7.61160646207070
C           9.18812572262795    1.35729837296308   -8.27072763641829
C          10.41776605311026    1.53303980756155   -7.72874983240088
C          11.63541042917737    1.15942736461302   -8.36517235153296
S          13.15156665719311    1.50751372014823   -7.58508339890165
C          14.03135006700241    0.82876219493362   -8.89436904029592
C          15.49861711302382    0.88404680370573   -8.81544941740633
O          16.08234938711625    1.02944696529640   -7.77658819670347
O          16.16791654727770    0.78366544374987   -9.98214846185471
C          13.19137214043263    0.35268755703279   -9.90347595014183
C          11.83502711076373    0.54541323567661   -9.58220282100875
C          13.64328988990586   -0.35349475875951  -11.07961291630891
C          13.13441970943063   -0.21547294305658  -12.32698208013398
C          13.52730946633671   -0.97749384879404  -13.50741038188374
C          14.16911565065894   -2.18512847489083  -13.50897691021217
C          14.49868469879457   -2.90013657751726  -14.68091635076583
N          14.79149301117046   -3.52248911017134  -15.59924707907252
C          14.54113147224511   -2.90047538007565  -12.34959155653295
N          14.84607067554752   -3.54156909923923  -11.44796350882485
C          13.02852626394307   -0.26966200378528  -14.67720370347174
C          12.25381710612275    0.84365419127684  -14.24117917358327
C          12.24283894014161    0.89983497145869  -12.77163609577640
O          11.67131499805884    1.71181669291710  -12.07914521365565
C          11.64546141058725    1.68990779194174  -15.12414849368764
C          11.78783062854408    1.45782824958543  -16.50959533436761
C          12.56814113134649    0.35070430840312  -16.95457006982856
C          13.18625112502604   -0.50794232756926  -16.01782772855454
C          12.70689757862000    0.13172046937994  -18.34051150205330
C          12.10326392177249    0.96330768676791  -19.24402454044633
C          11.33465666747830    2.05202318346786  -18.80474667554996
C          11.17995836411672    2.29405062249755  -17.46675935252312
H           2.10396032406340    8.32406521950272    5.50352065693063
H          -1.25509842540689    4.68722592214141    4.89860863662996
H          -2.08476959329639    5.08432684185606    7.14065230391777
H          -1.99866879395065    6.32409771989535    9.26661501373740
H          -0.34696854182120    8.12219757440287    9.59068581060015
H           1.23400478654226    8.69495012117947    7.79051842968145
H           2.60416607467560    6.85597178494706    0.42328896361662
H          -1.04282436693762    5.99403804154881    0.21020381057841
H           0.88035575885155    4.26376590383977   -3.48638756752403
H           5.37564116618079    4.47859740043967   -2.46891635934762
H           4.21361108945729    3.43163769654469   -5.12717289273402
H           7.31148965182042    5.05729092374307   -3.05992362924832
H           8.96806093839261    4.47417050943110   -3.32736371302814
H           6.82432322919561    2.79489022562269   -1.92773633710384
H           8.06528834001049    3.74263918182539   -1.09801497518260
H           8.52944369645170    2.39502140580052   -2.14072129927493
H           7.05326426577509    1.22100906295765  -10.15753629528489
H           5.37103180590252    1.17187770897000   -9.58238657596487
H           7.48254793675681   -0.94245646510816   -8.89650708155782
H           6.20863432740268   -1.12276430370994  -10.11058181830751
H           5.78770887631487   -0.95429837409814   -8.40411588103705
H           9.08829084985033    0.90371432062207   -9.24529200134214
H          10.50683210738763    1.99746615388648   -6.75562474252215
H          15.58125895558121    0.75621268806470  -10.74983062972218
H          11.03715355487931    0.20954932982708  -10.21659804898518
H          14.45172517829158   -1.05980826925886  -10.92179933289581
H          11.06228907536798    2.52596700589267  -14.76749056347123
H          13.77704137175984   -1.33204515343552  -16.38502613073886
H          13.29806482713766   -0.70835213746131  -18.67398542952983
H          12.21455042670887    0.78673306302279  -20.30318425567427
H          10.86654529833032    2.69826865277573  -19.53191016371814
H          10.59014992801764    3.13085685050692  -17.12244748162533
