96
 SCF done       -183.120432844854          0.000591693809
C           3.08336644034678    3.68969739446804   -1.73935492432579
C           2.68859478001483    2.79618582201008   -0.77866735318325
C           3.44254134058195    1.66451762290248   -0.39928345139938
N           4.00549513703606    0.73142391310156   -0.03912201251357
C           1.47368916382960    2.83223696505419   -0.06098041862240
N           0.50182586633873    2.77442868082760    0.54834365872374
C           4.29052449530760    3.57407797386192   -2.54668416900061
C           4.25795934935404    4.58101082632883   -3.55170248886368
C           5.25562252578712    4.71604801016912   -4.47413401860303
C           6.35693064995300    3.83294539108746   -4.43000946928970
C           6.40102127068335    2.82506676144975   -3.42334431649139
C           5.35203614608523    2.70983198186413   -2.48284019328389
C           7.50529869922436    1.94925628259101   -3.38781880357937
C           8.51723325930050    2.06147595982094   -4.30201549176839
C           8.47304827386106    3.05465405768979   -5.29204586698893
C           7.41590081772105    3.92153034651724   -5.35484245510787
C           3.03404274040175    5.38484343368766   -3.41019123621069
O           2.69183611688523    6.29141882927722   -4.14000533794178
C           2.34737183945724    4.86182799103947   -2.19886811619822
C           1.29791686454963    5.40491883824958   -1.51639778977878
C           0.45018285248496    6.49654990006505   -1.81821817602043
S          -0.69045538394028    6.96295593719281   -0.56717260625426
C          -1.36204799369357    8.20522343268369   -1.55860646547424
C          -0.72258168185834    8.23580926704101   -2.80518532161307
C           0.28849857097008    7.27968554960197   -2.94492039662842
C          -1.09861063261876    9.14228239812225   -3.81302638840764
N          -1.43027426602121    9.87766853073196   -4.62807791447445
C          -2.41286612007301    9.06911468324862   -1.15899959051696
C          -3.03081406182888    8.99525438132204    0.04301308882512
C          -4.10301288530841    9.79861998422843    0.52074201159537
S          -4.89011258175290    9.24623773812311    1.97314014247513
C          -6.02794440658324   10.54636799662274    1.91164211069738
C          -5.80691549375793   11.36380856613480    0.80971903490742
C          -4.70511573530251   10.95669896142438    0.03983122117317
C          -4.22059295793746   11.77941931382541   -1.12072348414149
F          -2.84824763691809   11.94526179723992   -1.03181028861014
C          -4.86771811670026   13.16204944378375   -1.13060629042723
C          -6.37366458983593   13.03347953263652   -0.96835658040718
C          -6.70037639228854   12.50990901487289    0.42610506451470
F          -8.01744709305634   12.07724268053665    0.43440540635124
C          -7.00401333537360   10.71962463689484    2.93168587058733
O          -7.70584687299744   11.86176102642786    2.98421620303540
C          -8.55878452725065   11.80778727106765    4.02823630757000
C          -8.39863921466459   10.59098771574698    4.69029114723708
C          -7.38725440844512    9.88371744913187    3.98115693299369
C          -6.89065871142232    8.60777278683965    4.27838382448346
N          -6.48977757007011    7.56362077545179    4.52949703162706
C          -9.09615986440908   10.15592233224897    5.82544835106485
N          -9.66719717371006    9.80669151869230    6.75573663174651
C          -9.42158396902691   12.90433175632062    4.28213906212990
C          -9.41151251571946   13.99992520288888    3.47892617564600
C         -10.24698699620259   15.12241700381330    3.67879233579570
C         -10.20801934103631   16.24356051047261    2.90064385530282
C         -11.05835281859560   17.41677268731364    3.01986327696434
C         -11.99099523831780   17.66139960343787    3.99343517882595
C         -12.78311078812402   18.82823322127964    4.05423916597205
N         -13.45839124026154   19.74994779496179    4.16342437049125
C         -12.29261614533882   16.81286578949564    5.07981803758867
N         -12.59287702566908   16.18620410261700    5.99393792168896
C         -10.73219881905957   18.31619987600940    1.91911607772028
C          -9.67262742292843   17.74299653218577    1.15935447608560
C          -9.28685905067939   16.45186504889232    1.74815972103197
O          -8.39005154007613   15.72600434132710    1.36696582285308
C          -9.15047150771248   18.36726361157627    0.06264751864548
C          -9.67587201914590   19.61611422762996   -0.33567371781419
C         -10.73853481392692   20.19518311231788    0.41674404780303
C         -11.25732754624782   19.52646595189427    1.54891245680338
C         -11.25711100992337   21.44170768936128    0.01086923373831
C         -10.75133217492794   22.08668330763918   -1.08487208564030
C          -9.70501940537963   21.51562133391312   -1.82486751621469
C          -9.17866000053280   20.30666651380064   -1.45840548162975
H           5.20399306007560    5.48806754085537   -5.22751842621143
H           5.41962469251047    1.94072654848522   -1.73016112246755
H           7.53436084984579    1.18551328003281   -2.62461582728062
H           9.35793902030533    1.38497316355542   -4.26742181763429
H           9.28077001925008    3.12930732800051   -6.00461487544716
H           7.37612269228079    4.68810545922390   -6.11481898617951
H           1.06068011931915    4.94587806067942   -0.56335419203226
H           0.88471040554484    7.16437243920777   -3.83196916852816
H          -2.69389777959894    9.80187188779651   -1.89857192552798
H          -2.71902478007532    8.21377801432458    0.72680493154085
H          -4.40224746578090   11.25859336500846   -2.07278201106507
H          -4.61954936253233   13.66492591112035   -2.06537517081339
H          -4.44916948731331   13.74644899617610   -0.30807030244262
H          -6.77389715476377   12.33329905428457   -1.70543673274287
H          -6.86402002972310   13.99636870732703   -1.10888451202371
H          -6.64775684482860   13.31612348138505    1.17055257854307
H         -10.07624623575741   12.82650663831621    5.13893505199691
H          -8.73668184125861   14.02252417901492    2.63610585365141
H         -10.95655390992123   15.06314780459604    4.49369425863872
H          -8.34550262163139   17.91247088584603   -0.49563287090627
H         -12.06220442514343   19.99202339300881    2.09468830379549
H         -12.06225347924387   21.87744306040910    0.58392310941819
H         -11.15492519043692   23.04110090744579   -1.38768020852893
H          -9.31824087017316   22.03849840831002   -2.68666207355979
H          -8.37297548467504   19.86247056247361   -2.02449642138897
