98
 SCF done       -185.700650912529          0.000776194506
C          -1.68537534967999    0.66943717888108    2.19693082703204
C          -1.73373227563098    0.58048505528528    0.83241956539122
C          -2.32635258688734   -0.49146850023058    0.13403823001188
N          -2.78870436099542   -1.34591833054889   -0.47635558719488
C          -1.12281801965633    1.52708026847028   -0.01248428299830
N          -0.61339375009337    2.29465428438306   -0.69780053865124
C          -2.09427245802557   -0.36932325973660    3.13240688273351
C          -1.46816313098644   -0.12457716493375    4.38987183964457
C          -1.65129215083390   -0.95859389958479    5.45569326425938
C          -2.49373907861389   -2.08397557462378    5.31320600558959
C          -3.13530554691996   -2.32394384287989    4.06327879341852
C          -2.91894155887057   -1.45027870210943    2.97321928283238
C          -3.98323496743218   -3.44343801488129    3.93953803667390
C          -4.18804060967760   -4.28726546368704    4.99697065728518
C          -3.55507032076647   -4.05106449146793    6.22660557741935
C          -2.72548523485906   -2.97377709967025    6.38092250732780
C          -0.68337506504582    1.11887193448337    4.31369456691996
O           0.02101062869016    1.61481793653362    5.16039736350153
C          -0.99678793447514    1.69153784963527    2.96574016669470
C          -0.72787825734765    2.99346780390824    2.74171934837275
N          -1.23604383814339    3.80952650663058    1.76261388778002
C          -2.47641719800752    3.65797531722289    1.09924117903814
O          -3.27720559476470    2.79509454681954    1.35559806566856
C          -2.56479738491817    4.78294837161246    0.17891650941763
C          -1.49767787171185    5.60929589900669    0.34113681627580
C          -0.59170096770874    4.98343466889865    1.35425383241263
O           0.49369663428224    5.31216638055185    1.74652924449044
C          -1.29472009054843    6.80844684165393   -0.41133427108602
N          -0.50220781756608    7.88363317903204   -0.10935454040272
C           0.16355366803827    8.18155549745305    1.13817582024858
C          -0.84216655798741    8.43745925883922    2.25713866916892
C          -0.56183073081672    8.87794452159073   -1.11883571824301
O           0.03016536550927    9.93063102781924   -1.05300383852543
C          -1.44750672439259    8.31831575225736   -2.11357610446171
C          -1.90588466765260    7.06742292110638   -1.63796896975178
C          -2.80530107215329    6.52778166519710   -2.63590157323023
O          -3.46630860461768    5.51361301854292   -2.68181876079466
N          -2.82105598109148    7.50161549768881   -3.66180064479568
C          -3.59465799187255    7.24890120381960   -4.85460979012839
C          -5.04019626614978    7.72006090856582   -4.70690207824214
C          -2.02944824049961    8.57853529176486   -3.35171279698546
C          -1.80121170508820    9.77495168753220   -4.09475823493447
C          -2.55970296475898   10.26362970658719   -5.09039742385828
N          -2.34291023778451   11.46309677598123   -5.74128929023426
C          -1.24316918298001   12.33632722401355   -5.63768551880870
O          -0.25682012803664   12.14468801998927   -4.98413892529273
C          -1.57079356373187   13.49003747934211   -6.50189394003941
C          -2.77339771991674   13.30728737429865   -7.06523812044548
C          -3.27858468671635   11.94813653476413   -6.65154639042441
O          -4.22054583890540   11.33670368275654   -7.07674885957447
C          -3.58738547021195   14.15068377628573   -7.90339438775583
C          -4.87041260068672   14.38594132368734   -7.55788649032009
C          -5.93769092875467   15.08453260389594   -8.26316107581369
C          -5.82339389293156   15.74171680749843   -9.45534602127940
C          -6.88821544814022   16.41194674637539  -10.09726093003594
N          -7.71430295472665   16.97361363795963  -10.66125479443040
C          -4.62070850006572   15.84887238716180  -10.18740544004789
N          -3.66797424340544   15.96668214559205  -10.81557566449740
C          -7.14313790820596   14.95062192658408   -7.45657559948414
C          -6.82652589670421   14.25383234853895   -6.25069443057999
C          -5.40300702793390   13.91973309813728   -6.24411638682079
O          -4.74590240065852   13.40992775429938   -5.35875252389846
C          -7.77417128115501   13.98181751933531   -5.30406752815594
C          -9.10584497652841   14.39588167601894   -5.52348494114520
C          -9.43127411920078   15.09243510661308   -6.72485263600315
C          -8.43069766491317   15.36271113980676   -7.68553246802584
C         -10.76457205881062   15.50139913919120   -6.93208193005267
C         -11.73080694619330   15.23518109279012   -5.99999935066813
C         -11.40957607760053   14.54879538931564   -4.81899508747030
C         -10.12497287707931   14.13805172033817   -4.58536453839505
H          -1.16343218612545   -0.75972732411249    6.39841453750571
H          -3.42477352416882   -1.64538370472432    2.04056144608205
H          -4.46597469047343   -3.62231961538456    2.99007312304344
H          -4.83887552663281   -5.14235967644220    4.89182055308031
H          -3.72857710917134   -4.72668293438587    7.05088096673047
H          -2.23598447170485   -2.78659173162894    7.32552265616121
H          -0.07491261908721    3.50338272700282    3.44454474850956
H          -3.38594609015604    4.90409004717698   -0.50291126822651
H           0.74632143293320    9.08704219098856    0.94782116252867
H           0.83807701243104    7.36965391971757    1.40933140002989
H          -1.50715912938849    9.25635155544343    1.99054019835748
H          -0.31296966196335    8.70034831102870    3.16834850513515
H          -1.44249916130743    7.55020907140982    2.45072563739464
H          -3.59393872717116    6.16347170611222   -4.99605568156555
H          -3.10045556493933    7.71442950322485   -5.70917767352204
H          -5.53074005658699    7.14558354386766   -3.92525960913905
H          -5.57459586785062    7.56562895116525   -5.64010652769135
H          -5.09228634003845    8.77396794995906   -4.44241629279465
H          -0.95335742516095   10.34613551715116   -3.74075934172184
H          -3.46609538165249    9.79447843003483   -5.44513357446326
H          -0.93195208576143   14.35117140743484   -6.56507649721212
H          -3.14444292192744   14.55295711874027   -8.80373152570300
H          -7.50945272169768   13.45232375153051   -4.40099269947846
H          -8.70947625487608   15.88821003503953   -8.58523366809061
H         -11.00780259916250   16.02934530978814   -7.84223077530318
H         -12.74897465275829   15.55192524112785   -6.16801619258744
H         -12.18491940567304   14.34687676842729   -4.09552232907057
H          -9.87165104973701   13.60934983477790   -3.67835982516506
