118
 SCF done       -218.672259549460          0.000555539820
C           5.06355605001262    6.27894388521517    2.78327604837479
C           5.60597179929256    5.08513967957107    3.16846876814357
C           6.65891518963394    4.95922991130057    4.09925385418463
N           7.51017207182876    4.80765270921211    4.85335058835870
C           5.21123668444017    3.84305861932365    2.62609196388356
N           4.95186902756045    2.82044659713591    2.17503086248080
C           5.50984156359749    7.60738406987147    3.17524957153915
C           4.81286604992614    8.57453719288253    2.39125517803602
C           5.03729070385483    9.91452365450088    2.53799744130551
C           5.97940604312024   10.35590798280160    3.49270540938751
C           6.67301587033819    9.39517634420798    4.28533116803654
C           6.42405834993263    8.01482940278263    4.11042402191667
C           7.60419477227977    9.84902686165936    5.24123596315968
C           7.84120119453133   11.18665651009356    5.40717044123191
C           7.15906593604147   12.13129787776943    4.62565529972133
C           6.24838277993197   11.72502170683016    3.68838043768542
C           3.86706419619107    7.89445597219811    1.49919346610912
O           3.09457719383511    8.40608669393283    0.71217262009218
C           3.98711194409932    6.44844029027746    1.82024870169011
C           3.07127079671175    5.53444996871846    1.42473083447570
C           2.05819442691676    5.81765698638034    0.44919029427662
C           0.69536956906623    5.80290799629399    0.66220467503169
N           0.08775805914371    5.49612144760869    1.89047629224443
O           0.82569875749932    5.28148725635099    2.84190606755043
O          -1.12711287801524    5.46420136988888    1.93580221422515
C           0.01211127577874    6.24423860459776   -0.52740721714073
C           0.94788885772561    6.57403364530771   -1.45057839999842
C           2.26046172914575    6.31212474726028   -0.90587137682993
C           3.46895258466973    6.34325939596336   -1.57215180981979
C           4.58822252451928    5.49316325639980   -1.33765174090498
C           5.45525233734969    5.61495974809307   -2.38626535748796
C           4.96366787797748    6.61245109608926   -3.28582821957700
N           5.68869172883586    7.06603582546862   -4.40147128596436
O           5.29461681430521    8.06139683519305   -4.98660204703296
O           6.68463067518387    6.43560569288072   -4.71355262896643
C           3.75784658096682    7.11623556886708   -2.79761032394743
C           3.03128799207863    8.23097565036411   -3.24679798587825
C           2.29952296484909    9.01421655533800   -2.38836130689650
C           1.56191635816826   10.13498616316973   -2.79717371830486
N           1.01141613272200   11.04513905003498   -1.92387962936873
C           1.03707284189473   10.96865790919385   -0.48075424905830
C          -0.05144298124062   10.03967592492041    0.04884992265474
C           0.34406153155280   12.07809428057342   -2.58892177647425
O          -0.20231418586733   13.00881552225513   -2.02899782843986
C           0.49232232010488   11.75542047140961   -3.99690978982903
C           1.23771635272609   10.56841688628565   -4.09311243772599
C           1.34156367081295   10.21234054784685   -5.49578406829113
O           1.83953106896952    9.26603882719948   -6.06023769381514
N           0.65109938367611   11.24678365752456   -6.16430964678899
C           0.58300557911849   11.28504026141875   -7.60572065657509
C           1.58979423167747   12.27082886544334   -8.19267900417245
C           0.13806516740869   12.16985719113814   -5.29242205030099
C          -0.62937837389297   13.28847761902296   -5.67796762640893
C          -1.11101797922391   14.18812491378845   -4.77457161924301
C          -1.90897103934940   15.30245175715438   -5.10727305052307
S          -2.43154474764735   15.64698394431455   -6.73913637271968
C          -3.30080298454447   17.05492243772981   -6.22256848358036
C          -3.16962282546460   17.23463472561420   -4.83775238994583
C          -2.39435036352237   16.25008483226177   -4.22100080623121
C          -3.77319216010991   18.30510148767083   -4.15205250197867
N          -4.26306056294106   19.17689193749781   -3.59200989839743
C          -4.03676582177757   17.87027901582879   -7.10953417583480
C          -4.16313579994963   17.61504312421328   -8.44026325918136
C          -4.91875199212546   18.44127922097611   -9.30140097930184
C          -5.09750752132293   18.20337014663390  -10.63468755844044
C          -5.86313717632824   19.00790493492056  -11.57139843052856
C          -6.50794031944137   20.18850133306901  -11.30753279578732
C          -7.23382704914334   20.92501788338858  -12.26833082487558
N          -7.83955706738005   21.57337003415497  -12.99658038665241
C          -6.54312140481658   20.84950546530344  -10.06156613147228
N          -6.61778228084747   21.45167567458596   -9.08668847226868
C          -5.81948030719072   18.34243456165423  -12.86873273622634
C          -5.02953118035940   17.16309514070338  -12.75119011958147
C          -4.54313164726698   17.03194983408209  -11.37008589665267
O          -3.83895710315723   16.14558368892753  -10.93145678043115
C          -4.80932387349895   16.33112815519920  -13.81141617321230
C          -5.38100838942562   16.64516784416812  -15.06391425940283
C          -6.17346924522202   17.82284335935442  -15.19097229702194
C          -6.38327659059691   18.66525094424595  -14.07523642596491
C          -6.74029067536696   18.12720158857471  -16.44538072486935
C          -6.53554408969976   17.30885060117559  -17.52288171221913
C          -5.75553756028770   16.14952074436449  -17.39634476465125
C          -5.19030620957300   15.82469137419766  -16.19302335630263
H           4.50069030008009   10.63233497275463    1.93508710719573
H           6.95702072814264    7.31037381000872    4.72942789014524
H           8.12775134052800    9.11835366730097    5.83973654252086
H           8.55594367065694   11.52438830700843    6.14223262889572
H           7.35779853384267   13.18240246395442    4.77076423394223
H           5.71968943366268   12.44810253561911    3.08472499846033
H           3.02606526629316    4.56263527112778    1.90215747383757
H          -1.05625951671730    6.29090546044107   -0.61642898288584
H           0.76961590660393    6.87921761570724   -2.46334614276373
H           4.66228662949012    4.78773987469266   -0.53169752819416
H           6.37052092474291    5.07493886694166   -2.54167602323938
H           3.14358681086461    8.51755336343997   -4.28636898270571
H           2.35050784930572    8.80983880802843   -1.32902329418073
H           0.86534242194203   11.98515421102995   -0.11667774228763
H           2.01959630154139   10.62660032077345   -0.15017651587493
H          -1.03212831254050   10.39496740581908   -0.25835224781621
H          -0.01345761076505   10.01570492937549    1.13385006368949
H           0.09028441224469    9.02806997469628   -0.32397471299070
H          -0.43497094194467   11.53348426746773   -7.91807041231982
H           0.81994528579303   10.27317075286838   -7.94573792489656
H           1.40520435912203   13.28063336248202   -7.83249772327379
H           1.51601253988981   12.26730067001807   -9.27634357717481
H           2.59956208884673   11.98112261743014   -7.91282563142084
H          -0.84560311795681   13.42467121387404   -6.72900736975917
H          -0.88739340718879   14.06215184014844   -3.72206918202129
H          -2.18925663292080   16.22021872315385   -3.16566902566123
H          -4.52411780122991   18.73420491254571   -6.67237697094378
H          -3.67859824651793   16.74699990253595   -8.86642146809427
H          -5.38337516898781   19.30930073279126   -8.85168880503276
H          -4.20612749577506   15.44307616174125  -13.69393306825119
H          -6.98921611007225   19.54737534146138  -14.20633706674426
H          -7.33986917666520   19.02072907809395  -16.53827261698190
H          -6.97391844468636   17.55047511223442  -18.47940619041568
H          -5.60486351590173   15.51525228779409  -18.25695564641702
H          -4.58878253603944   14.93352967226168  -16.08931493479566
