132
 SCF done       -236.325229237216          0.000244345580
C          -2.07760114441187    0.04490976848056    1.49146528573054
C          -1.42026002382343   -1.00606533499396    0.91397940334574
C          -1.69994060020763   -2.35856642144299    1.20391514108578
N          -1.88077734024565   -3.47272454722195    1.41171798948858
C          -0.43621036740973   -0.89166481015002   -0.09412366986787
N           0.32566517416817   -0.88920299837298   -0.95212477030379
C          -3.21178292164146   -0.04441916238962    2.40254731928666
C          -3.74684059487812    1.26401784162356    2.58865268337630
C          -4.83563358217039    1.49276853294981    3.38057477815909
C          -5.44440999396017    0.40428589550097    4.04373225205708
C          -4.90827029474906   -0.90518833952082    3.87291018272112
C          -3.78449475043418   -1.11255733971907    3.04016389910295
C          -5.51971625361421   -1.98188680968870    4.54658578262153
C          -6.60920051948609   -1.77773427895232    5.34912688645558
C          -7.13744765084339   -0.48868645976016    5.51490996179003
C          -6.56776842924595    0.57901642613789    4.87584769903300
C          -2.94745846793596    2.23012310033259    1.82248649385854
O          -3.14802124473649    3.42578431254260    1.71765996633738
C          -1.83699667674628    1.45683916575744    1.23279384131296
C          -0.69264543937270    1.97257789858822    0.70475412947662
C          -0.35737213935041    3.31837687255923    0.43006626250264
S          -1.47450545438226    4.65722771240669    0.39624016737728
C          -0.23234712708506    5.73507246334656   -0.11892007417742
C           0.99187068964777    5.10122507654661   -0.26575735603437
C           0.92464005263281    3.72859739727386    0.05172067137307
C           2.11645705888138    2.86976192682379    0.00605318093905
O           2.16385927883725    1.75809537409058    0.50294785889796
C           3.28263068506066    3.47201281264252   -0.67145620457698
C           4.39227275540309    2.66694057726372   -0.91702065276448
C           5.51273682863130    3.17850253302979   -1.54184362820771
C           5.56166521117133    4.51327219068738   -1.93406490658647
C           6.79434560871466    5.08615214461982   -2.56580238264885
C           7.71809581383461    5.66167633218201   -1.48913205263863
C           4.46032267669864    5.31968168134117   -1.68061333582963
C           3.32081916482058    4.81795272592797   -1.06218194614597
C           2.18668488489710    5.73712730058521   -0.83014049590111
O           2.23188603883570    6.92014667267562   -1.11605136886521
C          -0.57062040745591    7.11140143248306   -0.38416820074307
N          -0.06726381392018    8.19867439838601    0.26823608326566
C           0.84894311997083    8.19422755828432    1.38038834336897
C           0.22867106418895    7.57732171884762    2.63043109239182
C          -0.63424263798938    9.40202622578739   -0.21719319021902
O          -0.37917373368685   10.48970500689811    0.25114492434810
C          -1.52610619613813    8.97364960127429   -1.27113200491399
C          -1.48884477848290    7.55181027788101   -1.31682959189477
C          -2.39258220668923    7.10289643312088   -2.35266732543397
O          -2.68706540505667    5.99899675723206   -2.75710493892276
N          -2.94769532928001    8.29642901378485   -2.85305720428406
C          -3.86595933043978    8.28242865696503   -3.96522675236865
C          -3.18380595828609    8.67776020500860   -5.27265199373366
C          -2.42872850040065    9.41274926951235   -2.23189435029086
C          -2.82269751534696   10.73617673069332   -2.55359976834541
C          -2.19660342702680   11.84188839012451   -2.07755357396387
C          -2.62998399087341   13.15818362706656   -2.37107192894988
S          -4.16059819214633   13.46085261488247   -3.15189434354225
C          -3.92874269759654   15.17657381303090   -3.08737524565654
C          -2.74201277365970   15.50326003844100   -2.44505588284598
C          -1.99792564915730   14.35829967711284   -2.06314392408326
C          -0.65832826851663   14.45267825276022   -1.46809819141144
O           0.09247500333083   13.50371128064493   -1.35368456461696
C          -0.26587570221285   15.81635575466997   -1.05319578024556
C           0.94699140110583   15.98353975258635   -0.39041511082796
C           1.36809503234567   17.23696102416364    0.00818052974668
C           0.58901651505030   18.36232555185653   -0.24660526060052
C           1.06548739085148   19.73264568288966    0.13335642380517
C           1.82233053216675   20.36880387368460   -1.03520270080773
C          -0.61772240389362   18.19667950916355   -0.91046605121791
C          -1.05948420746929   16.94018945829687   -1.31443741824712
C          -2.34585400161955   16.85734937899968   -2.03360532911410
O          -3.02731796402175   17.85178084629271   -2.22872872030713
C          -4.96295471876392   16.01479405473900   -3.61524277153400
C          -4.74772070601302   17.17200401939062   -4.27608236515136
C          -5.72317232922932   18.19585840615203   -4.61563392621499
C          -7.08192748839241   18.04598100570944   -4.66991991905431
C          -7.97755051151809   19.08201194630975   -5.00968346023272
N          -8.75412968743048   19.88185062349428   -5.28270586986993
C          -7.76001697443288   16.82999208625578   -4.44083490744962
N          -8.36481869272812   15.86840788252698   -4.27491892156366
C          -4.97777768980071   19.41583619930596   -4.89665096484300
C          -3.58491782381235   19.11360616107702   -4.92423683883095
C          -3.39619645294542   17.67458757820700   -4.68562294961483
O          -2.40823565062547   17.01055086259227   -4.89620813327003
C          -2.64374370900614   20.07585469349388   -5.14923254514053
C          -3.05815463169716   21.41143341441359   -5.34894023075721
C          -4.44910781786265   21.72204187912520   -5.32369315226809
C          -5.40185968234166   20.70389112877634   -5.09633602509624
C          -4.85010691039579   23.05895942870264   -5.52598178957956
C          -3.92439686434021   24.04295211679144   -5.74071347915070
C          -2.55515142434964   23.73650908144327   -5.76355439069880
C          -2.13180022210449   22.44949699950936   -5.57223593335194
H          -5.22615593510725    2.49237445912440    3.50097161005879
H          -3.39907751275995   -2.11419754831975    2.93346983755912
H          -5.11071080847444   -2.97275453161883    4.41450022114705
H          -7.07043122413949   -2.60913478774911    5.86067760570140
H          -7.99761874239294   -0.34592022866008    6.15165757876225
H          -6.96989130942561    1.57388351681315    4.99969110770362
H           0.11817922348435    1.28205064091445    0.49632264627356
H           4.34817441748655    1.63221178333192   -0.61120113569929
H           6.36053411496839    2.53629816415882   -1.73127092507404
H           6.51821163947924    5.87895851703562   -3.26292750157789
H           7.32461257583276    4.30859517663143   -3.11842184463872
H           7.21085527607496    6.44947267696455   -0.93718626997001
H           8.61404235060938    6.07705731137220   -1.94342021747971
H           8.01233762293061    4.88506311082066   -0.78667746283141
H           4.46406352670121    6.36190234662330   -1.96660012626776
H           1.09237350986849    9.24480571398017    1.56205945367982
H           1.76219256890306    7.66585712716491    1.09781764422367
H          -0.68324056546690    8.10633580903013    2.89757137269238
H           0.92789233230131    7.65050330573689    3.45882442146024
H          -0.01208129954352    6.52801988290308    2.47299949669122
H          -4.71236231209440    8.94242005621119   -3.75334518567637
H          -4.23157371275604    7.25415407183799   -4.03714332574911
H          -2.77471496884233    9.68379050338389   -5.21105129285047
H          -3.90064383085841    8.64022173585505   -6.08822457836812
H          -2.37237673415362    7.98767807204913   -5.49030669102293
H          -3.66642581066851   10.85759425475134   -3.22161689508958
H          -1.31788916718783   11.75422429643490   -1.45041549063617
H           1.54498084951840   15.10516102556666   -0.19789098246320
H           2.31139170168281   17.34776604118458    0.52331320891039
H           1.72575322505899   19.67005456094204    1.00018028670882
H           0.21242166933980   20.36177072424880    0.39369609122996
H           2.68377836579696   19.76173959377242   -1.30423946391057
H           2.16822535415564   21.36360465079316   -0.76547212751782
H           1.17460614099844   20.44911021205308   -1.90511916985772
H          -1.24598640757856   19.04853323848090   -1.12949341267806
H          -5.97436201660741   15.66820243021080   -3.44197684212297
H          -1.59410763948885   19.82231924474047   -5.16461385674702
H          -6.44703162858323   20.97023236596139   -5.07530483638264
H          -5.90518108663792   23.28959805445727   -5.50818830865417
H          -4.24142006125163   25.06362032042743   -5.89402070672932
H          -1.83813080375338   24.52574390032467   -5.93388216264044
H          -1.07901877217724   22.20773858539827   -5.59041023778230
