95
 SCF done       -190.622293406465          0.000756041566
C          -3.36571864959842    5.12798094028708    0.37732520833913
C          -3.57871129193282    4.42935362567747   -0.77838870456124
C          -4.85926541817094    4.17628426834171   -1.31773095263012
N          -5.87394465359282    3.93595249522878   -1.79509698061539
C          -2.54611412728451    3.93868418470132   -1.60103226399810
N          -1.73588487416466    3.54524528904283   -2.31360650374466
C          -4.37168499733116    5.83209774259827    1.15393177111624
C          -3.72180325194140    6.77855246245474    2.00264778015407
C          -4.43023251932526    7.60613065931738    2.82714849896929
C          -5.83992550043576    7.52000618206194    2.84443198417205
C          -6.49366228926293    6.56387315767940    2.01175387268773
C          -5.73744226199581    5.72122460976237    1.16735720192079
C          -7.90110264065837    6.48314003518937    2.04592345935735
C          -8.62965887981086    7.30785368263254    2.85911387060813
C          -7.98572142615512    8.24974578706412    3.67616031140828
C          -6.62099251746234    8.35389224790502    3.66887446838926
C          -2.26616421897750    6.67263376621206    1.83740277427373
O          -1.39324943471430    7.33463706760904    2.33839859884489
C          -2.07068854625818    5.47720955292987    0.94436767297939
C          -0.87887368667109    4.85846686245051    0.91814188415433
C          -0.56718826273234    3.54366730618383    0.39648655373358
C           0.54430228272330    3.32211431886360   -0.42075337779073
C           1.49354252967808    4.31772889806756   -0.96678732066563
O           1.56229059111002    5.49876284239506   -0.76119802050772
N           2.34715287690044    3.60056925596835   -1.81882668651738
C           2.04812153008207    2.23602344877364   -1.84529068381178
O           2.63464634959600    1.39031154196660   -2.46280691827689
C           0.86888573189783    2.07261053500875   -0.94962609885048
C           0.13704998322953    0.93171887553337   -0.66725846282635
C          -0.95201721915444    1.13251302402663    0.16759858024535
C          -1.30668186575374    2.38438641510635    0.67280592167167
C          -2.52296504245428    2.19027077130168    1.49799728224883
O          -3.17507546006478    2.98459051027583    2.10493336134271
O          -2.83798625222347    0.85672015511019    1.45605959317264
C          -1.94463251119312    0.15228814649594    0.67694165564292
O          -2.02353483960582   -1.01919007214329    0.49924647397611
C           3.32329157768222    4.26666981099067   -2.54905360932121
C           4.10985061599075    3.71097826046715   -3.48124460658834
C           5.06779410223307    4.44955330683247   -4.24479267951993
S           5.86630877253218    3.67669825464461   -5.58010967690489
C           6.73528020900901    5.12476260563925   -5.99355893835271
C           6.41324197514963    6.14696960787019   -5.09571729553835
C           5.47648747897480    5.75799388588856   -4.12239697623675
C           6.93844883003100    7.45050261962093   -5.11429377040330
N           7.33216442268166    8.52735718516146   -5.07447400111959
C           7.57836450922770    5.11603386738161   -7.13103053470388
C           8.28171345572711    6.17791802663937   -7.60584685452629
C           9.06757602224268    6.15701919580345   -8.78470777617823
C           9.75901011050785    7.23198246732293   -9.30507806288364
C          10.38707720485800    6.84785951573081  -10.52119266252961
C          10.04491172602437    5.42478227180021  -10.72168389306847
C           9.26495418168388    5.02695327176227   -9.68426325300653
C          10.44327300764672    4.60414100735723  -11.78226996147677
N          10.75115784044045    3.90172690155699  -12.63798507897724
C          11.14023567224901    7.62810459391111  -11.36941927948265
C          11.71602804837082    7.25090380135218  -12.61501254843497
C          12.36518236930159    8.33529299267468  -13.16478781458224
C          12.21815324583357    9.45232878774703  -12.24168459147016
C          11.49045575649445    9.04792481859787  -11.16930689743494
C          11.15659388888999    9.85597207561896  -10.07705197576852
N          10.90712752775929   10.55403626861102   -9.19954383999108
C          13.06554065413973    8.44041617611148  -14.39740361064945
C          13.16798234732058    7.43649394843700  -15.30313333156600
C          13.84475169942723    7.49360176577822  -16.55171566438305
S          13.50349519847152    6.22918769425869  -17.71767576822523
C          14.54637649571344    6.92917814086864  -18.89715927081388
C          15.12923663875166    8.04851469428156  -18.41759994807532
C          14.75790220952300    8.38892430781636  -17.09169387037150
C          15.44739515498461    9.55146286818226  -16.57903875320757
C          16.27805750334366   10.14177966710896  -17.43606016381482
S          16.29282482324325    9.27552230865851  -19.01228379322663
O          17.57928922610278    8.69132824682370  -19.26115712518918
O          15.70297820881932   10.07266629384949  -20.04938699311106
H          -3.92069554326644    8.31856327017494    3.45874536565694
H          -6.25450916878891    4.99556745599396    0.55930774874285
H          -8.39222798620776    5.75864030902896    1.41338554446294
H          -9.70687177354909    7.23943861130773    2.87740413201984
H          -8.57657331656914    8.89169727251995    4.31197951714979
H          -6.12053394588655    9.07676301776354    4.29613644042575
H          -0.04780899247887    5.40215381987983    1.35785427439289
H           0.38516419454799   -0.03490268916863   -1.07386864068952
H           3.36199035234046    5.31867025321740   -2.30109237920085
H           4.02159491395475    2.65996716023703   -3.71154591069342
H           5.12405705760843    6.42771509521068   -3.35892598595709
H           7.62425796730310    4.16975943011074   -7.65333924255081
H           8.24381509693102    7.12307625653811   -7.08273559567028
H           9.80639093849592    8.21152047174701   -8.87111410450112
H           8.85937006940224    4.04167755942103   -9.54954658034015
H          11.63791222617311    6.27145030690882  -13.04189969655254
H          12.62550387069806   10.43413542820370  -12.40106661410631
H          13.50569060282388    9.40409481233546  -14.60833564102346
H          12.66269675469911    6.50171874605945  -15.10125511752701
H          14.66049925517158    6.46990039711656  -19.85816598726086
H          15.30506138228166    9.88623322930191  -15.56391271411360
H          16.89330410510490   11.00223767290325  -17.26668974312469
