106
 SCF done       -195.513526791007          0.000332872227
C           1.20485359226157   -0.59264231280993    0.29611984855298
C           0.96622694621440   -1.19294319545666   -0.91366209857616
C           1.20564063220792   -2.55700051888682   -1.17873164750038
N           1.38824070736408   -3.65593813608688   -1.45537493297521
C           0.42116418928005   -0.53356060936784   -2.03467045123445
N          -0.03692016106371   -0.05359598362788   -2.97220432485545
C           1.66792267799727   -1.25395382262234    1.50836410547181
C           1.64734011558300   -0.30989472597569    2.57553127261773
C           2.03154460618624   -0.64457022205355    3.84200838894033
C           2.46084609565172   -1.96500085616645    4.10420445992803
C           2.48900164269958   -2.91390533588281    3.04115138718055
C           2.08549594905959   -2.53761263607789    1.73919793147355
C           2.92609506869730   -4.22588177799110    3.31352437706825
C           3.31634531150170   -4.58579738999272    4.57499220815474
C           3.28733561151836   -3.65134487225243    5.62077138713740
C           2.86761819218721   -2.36891964988222    5.39076852505188
C           1.18138965167397    0.99321550233950    2.07620181106190
O           1.09534797624225    2.02846867089462    2.70260551693993
C           0.94940794096615    0.79678193487760    0.61897053452560
C           0.78760370243609    1.81109871187824   -0.28382453949896
C           0.41513742508206    3.14027911859597    0.00556301703511
S           1.05852557070286    4.41248354118143   -0.97947877035410
C           0.31461979275499    5.65631233464105   -0.03730008063095
C          -0.52331750046366    5.09039106367542    0.94480116782880
C          -0.45821817152538    3.66427623836702    0.97452467995035
C          -1.29088409923488    2.94465035379721    1.84581920918273
C          -2.11228086285490    3.63024093013885    2.71077503134906
C          -2.93206890814852    2.91266441516050    3.61324162187489
N          -3.58750048780608    2.31023192938211    4.33419756114946
C          -2.18571217066754    5.05400721842084    2.67180431125410
C          -3.08612073627994    5.72977154141782    3.52820272791323
N          -3.81908093353523    6.28883478673804    4.20814181602388
C          -1.42893109574699    5.76996557181795    1.77315186673825
C           0.65224856321215    7.02640141541428   -0.15815541111880
N           1.05639129095341    7.66206095465387   -1.30824898057472
C           1.11285602595769    7.12904604047549   -2.64896411391870
C           2.52920475652265    6.70648816925039   -3.02896610623131
C           1.39129340979753    9.01431134177938   -1.07206009900841
O           1.75046202967914    9.77613280599627   -1.94209955588741
C           1.19052225309136    9.18034377979344    0.34815900013258
C           0.71389853745414    7.95917130570539    0.88004497297053
C           0.62166278615590    8.12321799730856    2.31705904819285
O           0.31765606283164    7.35733107692329    3.20692675432967
N           0.98970311102631    9.46727608345482    2.54703444340433
C           1.05401203329481    9.95612789948931    3.90482489192289
C           2.49028318086605   10.07404563135342    4.40625151614943
C           1.35515577558534   10.09928557463951    1.38248381010965
C           1.84936102404260   11.41365698002750    1.16722448900069
C           1.89764499755977   12.46692549901904    2.01531464240113
C           2.47460877835552   13.71789771906349    1.66909041649290
S           3.35891522439735   14.03490873496841    0.18143975653536
C           3.61410977860017   15.64589534077049    0.83507116183944
N           3.05459572027182   15.80687750366578    2.00354166328657
N           2.44135756970164   14.75825687126187    2.45952165829631
C           4.39968644277082   16.61910253818366    0.15545680743024
C           4.55810816475747   17.87319893525980    0.63358659109639
C           5.37863209611516   18.88329285465837    0.05202881673148
C           6.57850100222529   18.71102099157433   -0.56594688247607
C           7.38952150568446   19.77989928809569   -1.13176782382010
C           6.92145370009206   20.98037302822166   -1.59260851554692
C           7.73962580029040   21.97423764025137   -2.17005050853639
N           8.35980818873741   22.81699615663065   -2.64148906131312
C           5.56096872752218   21.35719514078460   -1.59414235502972
N           4.47126382497308   21.71405175377566   -1.64488373258157
C           8.76382884074306   19.30681025047865   -1.20435433572920
C           8.78977332050337   17.93756440892289   -0.81313636966107
C           7.42627573194399   17.48445342396070   -0.48849323477229
O           7.09526357705648   16.35921735191621   -0.18765271571068
C           9.95134056924396   17.22062105730387   -0.77596288108517
C          11.16283154817356   17.85400287162091   -1.13163014320240
C          11.14551712722910   19.22505285133669   -1.52109080552074
C           9.92720604494368   19.94117974529209   -1.55260088727602
C          12.36191332061098   19.84692042117559   -1.86946252067995
C          13.53921834764823   19.15041619929454   -1.83503194748798
C          13.55513527741131   17.80109934224194   -1.45090805695355
C          12.39222770907513   17.16636044868243   -1.10797297829573
H           2.00560569190094    0.08883905976235    4.63419765156562
H           2.12439260458919   -3.27528990316526    0.95325719366635
H           2.94516938570482   -4.94231045212646    2.50543912339393
H           3.64928275262760   -5.59340826268868    4.77360887256658
H           3.59920991594256   -3.95226107431833    6.60961898193836
H           2.84263853238102   -1.64511548198985    6.19206770094020
H           1.03106955237736    1.61630807285981   -1.32207158981360
H          -1.30819667655907    1.86675157240290    1.82548585063157
H          -1.55657786140451    6.83579612468802    1.68826304358284
H           0.79143595111354    7.93301063427597   -3.31830273521789
H           0.41501230760906    6.29361649432530   -2.73687966569344
H           3.18743872883694    7.57075329425039   -2.99755235773842
H           2.53213541456121    6.30145529753650   -4.03653029173129
H           2.90926074697345    5.95016574211339   -2.34622352229547
H           0.51987401497030    9.21430225210113    4.50671149322868
H           0.52285818580619   10.90758053762049    3.98161310608466
H           2.97179402501222    9.09956250501419    4.37833830654817
H           2.48943945025197   10.43045735179902    5.43232128693776
H           3.06820377944251   10.76480135846206    3.79689691744340
H           2.21401564453185   11.55429353853445    0.15528108397289
H           1.49480691659961   12.43798442719065    3.01514230066011
H           4.85519600495185   16.30770393287371   -0.77100692541461
H           3.98508131757989   18.15830437773156    1.50664097924289
H           5.02796335208648   19.89883688529153    0.20028331414883
H           9.94562157564143   16.18295656969554   -0.47683095812666
H           9.94558138940215   20.98011270697070   -1.84195428364539
H          12.34460525557589   20.88540117247277   -2.16574352198185
H          14.46549637601539   19.63568223766755   -2.10355264255881
H          14.49340100023093   17.26740780879903   -1.42765222665341
H          12.39816262040684   16.12767397469494   -0.81151482393336
