112
 SCF done       -202.295234248803          0.000534254016
C           3.45111089155119    2.13661676795592   -1.95624603685436
C           3.43357381182797    2.35261158656051   -3.31009361189635
C           4.38085132117523    1.81272841466868   -4.20655916528763
N           5.11481506954161    1.41495974257494   -4.99463921573831
C           2.47902948771754    3.10116365443262   -4.03118174929979
N           1.74710947664293    3.67367756245962   -4.70679249528443
C           4.41307695379373    1.28775047758788   -1.26324096576002
C           4.03369610936247    1.20171906865705    0.10486448133426
C           4.73962681193756    0.46113437078170    1.00858732954544
C           5.88924821296707   -0.23674831904181    0.57702555360130
C           6.28380096873155   -0.14815271592448   -0.78914913390709
C           5.52784171038377    0.62263186576189   -1.70198653968917
C           7.43678799777202   -0.84255467212134   -1.20868287170605
C           8.16477129851624   -1.58998090783459   -0.32341369192260
C           7.77395395398280   -1.67801391658393    1.02108470002113
C           6.66025939098715   -1.01589134507992    1.46176099802254
C           2.82771424407706    2.01241957200661    0.33626631302753
O           2.23980897490219    2.11586507275321    1.39349826859122
C           2.51295282333497    2.65139288331528   -0.96670135295931
C           1.58583490643751    3.61756453528744   -1.24311767547389
C           0.62141555582751    4.25721620476014   -0.43387208164026
S          -0.30104820842965    5.54737412467573   -1.18500754289241
C          -1.18518362116485    5.85747353627521    0.26724301520740
C          -0.77543536725372    4.97338898494695    1.28249999287971
C           0.22722488491012    4.08613524794567    0.88157965335139
C          -1.28675791949589    4.95387039290035    2.59113112679155
N          -1.67877443700444    4.91404992499297    3.66959808728420
C          -2.13276939280256    6.90615153562632    0.28560565249506
C          -2.87597483258012    7.26841059875566    1.36752102766943
C          -3.76564288037647    8.36602443760101    1.34948461278936
N          -4.48646657594450    8.77690217380605    2.45245305621924
C          -4.45060124216268    8.18896375422969    3.77074718335682
C          -3.21363659763747    8.61653582517408    4.55609263820579
C          -5.25338330287443    9.91400260339722    2.18325009452633
O          -5.96196710658384   10.46747341547482    3.01030790866651
C          -4.99450262642194   10.20627229724350    0.79485230022387
C          -4.08087593439817    9.23734633922681    0.30874697034964
C          -3.82779868421748    9.52844142923522   -1.08513939162604
O          -3.12667955647772    8.98748887540514   -1.91686685153168
N          -4.61817237785517   10.66135313112867   -1.35415857953873
C          -4.60365949633906   11.29383400948669   -2.65158522189530
C          -3.69409561844635   12.51948039076883   -2.67695258495672
C          -5.30474113385598   11.08458912479372   -0.24451837446252
C          -6.14290966295859   12.23051942364080   -0.22563529404988
C          -6.73543825196155   12.61723985394137    0.92682454711988
N          -7.52009259279740   13.72542843628183    1.09762306663271
C          -8.03408571578239   14.10026078248871    2.33464037672211
C          -7.82893469506764   13.31785646340435    3.56764201709550
C          -8.71120709149220   15.27254989299034    2.17100056454414
C          -8.63869026349110   15.66858287783391    0.78567274099116
C          -7.87037348000903   14.67375072485019    0.07854900846802
O          -7.55139856904573   14.58058199217345   -1.08306250784208
C          -9.29112712832203   16.85568432667958    0.62735429570516
C          -9.49320975115338   17.67075086097861   -0.58776059766140
N          -9.74461241289861   17.26090332448479    1.86700347243427
C          -9.46242528804186   16.26974279846181    2.88805287388473
O          -9.89869989056641   16.32746147250286    4.00649937008404
C         -10.45321738531708   18.40336255257192    2.12045321983016
C         -10.26276428915496   19.12518702757242    3.25183542702923
C         -11.07903881606799   20.20644462752291    3.77278840649677
C         -12.29141944626257   20.61721000298584    3.28507703085984
C         -13.06591208355312   21.65167029800256    3.85109224977883
N         -13.74064910289473   22.48506416290864    4.26029463638047
C         -12.92215111324179   20.06794600939143    2.15015073660739
N         -13.47199270224706   19.66352087028917    1.22663032874235
C         -10.40145730804984   20.74015333486231    4.94706573929307
C          -9.18623809389839   20.02278074534958    5.14539033399530
C          -9.03212724645531   19.01154669816984    4.08937483163246
O          -8.05855910903073   18.32833329414114    3.86111385509167
C          -8.33777675125485   20.31150577273605    6.17494919394782
C          -8.67514675734877   21.34518807965039    7.07689477653859
C          -9.88712129264960   22.06984931646458    6.88453771112244
C         -10.74323330353269   21.75244948926328    5.80576698031208
C         -10.20991148359380   23.10451550062905    7.78644669804513
C          -9.37759543674325   23.40938032380570    8.82881891866504
C          -8.18536586599723   22.69437911173446    9.01789168200006
C          -7.84212031843406   21.68369784836135    8.16123400725303
H           4.42482645393534    0.41123289261801    2.04042986239278
H           5.85680270849285    0.66927919525459   -2.72759263233298
H           7.73295587067228   -0.77289787418570   -2.24509378467730
H           9.04634868773075   -2.11811394140506   -0.65458640905178
H           8.35988467245052   -2.27274220172516    1.70582863242240
H           6.35432600210110   -1.07948666931699    2.49580384429819
H           1.58857170214824    3.99738185418061   -2.25814129278416
H           0.65908193054444    3.34517647075699    1.53046791172569
H          -2.24469019880930    7.45858435970888   -0.63866894086425
H          -2.78313499292342    6.71819752351439    2.29066137835883
H          -4.49638187494171    7.10002016354145    3.68787726539509
H          -5.34993034306228    8.54304827913156    4.28256445320260
H          -2.30294533500095    8.29437696569959    4.05677466760682
H          -3.23961414064749    8.17186041212778    5.54657405719990
H          -3.19223621305767    9.69897721740822    4.65809368152769
H          -5.62383957123749   11.56316608944471   -2.93674455275532
H          -4.22592572565220   10.54198733503937   -3.35015251730502
H          -4.03961359054518   13.27605528943181   -1.97635591185310
H          -3.68512147499906   12.94752122328467   -3.67531503130928
H          -2.67878598424755   12.23497204549243   -2.41112585123251
H          -6.28018265903720   12.79156795787586   -1.13490839514416
H          -6.58738833401559   12.03201356242626    1.82524902743579
H          -6.76862844339828   13.23802764191935    3.80804542639273
H          -8.20706592873215   12.30145906831044    3.45734152979153
H          -8.34542247340488   13.81030101540243    4.38682229503562
H          -8.99849924462490   17.19205164455744   -1.42810796879280
H          -9.08673797214692   18.67262654073705   -0.44855284346991
H         -10.55675555031896   17.76993741503986   -0.80960003926503
H         -11.18363437637532   18.68556494223886    1.37214003294489
H          -7.42221905027317   19.75334164111709    6.30218801029579
H         -11.65017715269956   22.32315177910676    5.68349250365355
H         -11.12933634814334   23.65139563846938    7.63745655643021
H          -9.63340313343968   24.20353488260677    9.51403388156480
H          -7.54018693698148   22.94868684792498    9.84546471329497
H          -6.92553622357922   21.12974243929510    8.30177991288798
