109
 SCF done       -212.011113416524          0.000487532009
C           4.58281877323717    3.68121039031642   -1.24872801796304
C           3.46299258142561    3.08873704459366   -1.76537791897283
C           3.06810734409162    1.76791483501758   -1.46648154588361
N           2.70413977624569    0.70135694501853   -1.25150511628158
C           2.62651826817898    3.71125765037201   -2.71376301937971
N           1.95151127717955    4.16980164355403   -3.52192802790898
C           5.61545334502383    3.03509425340796   -0.45447978602148
C           6.80140345810831    3.82744244520827   -0.51261352648726
C           7.94646082135035    3.44827476062461    0.12811958765970
C           7.95472164718279    2.24678477651478    0.87139637807239
C           6.76784765365929    1.46023653071837    0.94532183609402
C           5.59757406456326    1.87360983495738    0.26946100700330
C           6.78875361629464    0.26886968748717    1.69883808117856
C           7.92599599211623   -0.13024039572403    2.34659177360859
C           9.09411081355225    0.64345923585335    2.27194736322252
C           9.10822472375086    1.80598840973339    1.55007082777705
C           6.54531855186438    5.03736915347362   -1.30948609566457
O           7.31614114165713    5.90790686084770   -1.63939793937544
C           5.07738852796493    5.00439206801926   -1.58625848267810
C           4.42225070656035    6.13396272507295   -1.93263661148226
C           3.01538140655925    6.39061752532253   -1.89684554547203
C           2.09270316043272    6.13828078991841   -0.89255742695143
N           2.28734654512099    5.52163376479616    0.35389126387708
O           1.35240442660239    5.53441174447015    1.13586877081161
O           3.37211039113694    5.01132290655142    0.60224254706950
C           0.82089916824374    6.71535106138909   -1.25608197087631
C           0.95640142454821    7.34642465050969   -2.44485037399148
C           2.31138570012287    7.18522970686323   -2.90476114005117
C           2.82062252753658    7.54387951008580   -4.13627937134503
C           3.87928630170233    6.88853510260454   -4.82849457078101
C           3.87139265897151    7.28620624494121   -6.13629378035716
C           2.85943371928565    8.27423933199723   -6.31919737950598
N           2.63717750095708    8.92107027880524   -7.53839533995993
O           3.34216961409785    8.61130292425367   -8.48185153525630
O           1.74194094794950    9.76323523468530   -7.61251063304616
C           2.22572733419680    8.50779495306916   -5.08534196017859
C           1.35130032213813    9.56427803192134   -4.84276159269683
C           0.99922916028283   10.13378608779634   -3.63951541570405
C           0.10597390946972   11.19971389294718   -3.55320365716882
S          -0.31303541669241   11.86721421061837   -1.98779074905867
C          -1.45829062222356   13.01646141737689   -2.63529316641775
C          -1.48549460534556   12.90591309004147   -4.04103723227269
C          -0.61321873106291   11.89887780690220   -4.54063490120761
N          -0.69771581488168   11.89566848098234   -5.89257207964356
C          -1.58575275783879   12.87350810010514   -6.27199274560758
C          -1.89209924963232   13.13647744215898   -7.61685552796830
N          -2.16489041031169   13.37734728354621   -8.70366438027685
C          -2.09403808091792   13.51436268869947   -5.15768195704904
C          -2.16031093599073   13.83754966730088   -1.75320087418064
C          -3.19686627307255   14.67258125737583   -2.09248195597250
C          -3.86417595931329   15.48441266877925   -1.16907977893307
S          -3.34127262541672   15.62622784281433    0.47930173253314
C          -4.61151479000341   16.73822803778854    0.87547644885972
C          -5.43641689440610   16.98764685076599   -0.25939502004500
C          -5.00721015749033   16.28602585410237   -1.42018189324118
C          -5.70707183301170   16.41889206152802   -2.62353875492619
C          -6.81760090976362   17.23643615623415   -2.67704118945027
C          -7.53217199808752   17.37579145397283   -3.89041435825385
N          -8.09264402133166   17.46951900753459   -4.88472453620207
C          -7.24890492019392   17.93709828176968   -1.51802476149161
C          -8.39298242053387   18.76746065830059   -1.60129941531021
N          -9.31710794291741   19.43987818447156   -1.66953706862875
C          -6.56645034189231   17.81351922860115   -0.32454866122981
C          -4.83212207506941   17.33758518241810    2.11815561246458
C          -4.12599697615872   17.24151454906034    3.29338254120540
C          -4.44335626486450   17.92896355951526    4.53043072730276
C          -5.52876451330542   18.73199705180566    4.77882613050515
C          -5.77671901665703   19.36273471302717    6.01651802826263
N          -6.03724787592130   19.90323253273865    6.99492182424680
C          -6.54857677857526   19.03971704530899    3.85548701093431
N          -7.40809609745028   19.32833737070148    3.14927371612557
C          -3.39435775207294   17.60501136694962    5.49208104776493
C          -2.46687625261685   16.71756261116308    4.87170610831512
C          -2.90154405594353   16.45640957746008    3.49627700229376
O          -2.35294611686983   15.73474875918997    2.67769964829029
C          -1.36799933851380   16.24262532360067    5.52849134801069
C          -1.13780547705924   16.64504277511527    6.86300170398064
C          -2.05866904618959   17.53290786112026    7.49124139475953
C          -3.19047486656022   18.00457827128517    6.78571601159920
C          -1.81754515369677   17.93138791629719    8.82117628579148
C          -0.71879202786957   17.47690227796075    9.49964440465750
C           0.18694755589463   16.60325653719260    8.88030344677775
C          -0.01839706016391   16.19514266483756    7.58975229932369
H           8.83567757645356    4.05865081581780    0.07184243386532
H           4.70682331620903    1.27081797480408    0.35293634031949
H           5.88762378669223   -0.32404881396317    1.75168149660669
H           7.93210152608808   -1.04475726487995    2.92048717754402
H           9.98227555673231    0.31400920869889    2.79008420967451
H          10.00466232764436    2.40572096871434    1.48998148780920
H           5.04967923204091    6.96843719216439   -2.23540794391318
H          -0.06150801600055    6.61769455934190   -0.65363088215329
H           0.17063041033876    7.79410918932129   -3.02038326964884
H           4.48933568225313    6.11027984881272   -4.41429472483458
H           4.50418188464508    6.92921238213380   -6.92722817872924
H           0.98519779912381   10.03679031354839   -5.74035421026082
H           1.43243470106460    9.77893767095485   -2.71549367354235
H          -0.18031157022876   11.32709535601398   -6.54843071711019
H          -2.79710135101782   14.32138504631813   -5.18160759017394
H          -1.87040249222790   13.78038482500601   -0.71172799541892
H          -3.53918653801716   14.69315522987685   -3.11586557445314
H          -5.39419443492586   15.88899861095765   -3.50986533214169
H          -6.92415407528207   18.35567362359271    0.53793846811468
H          -5.69417205691437   17.98885225843824    2.13749950200453
H          -0.68119609415273   15.57074678992317    5.03545398581527
H          -3.86595665391092   18.67612319250796    7.29094486934577
H          -2.51770092736702   18.60396352909437    9.29429940477234
H          -0.54219537810574   17.78901558781511   10.51784795154025
H           1.04832534967728   16.25500028926925    9.43003253509976
H           0.67560803849312   15.52225333967920    7.10784510777798
