109
 SCF done       -219.016471337781          0.000657589607
C           3.18131310695882    2.46125880760913   -5.37075145302774
C           1.93766430163513    2.12702724133501   -4.90675393089500
C           1.49391370029621    0.79701722634698   -4.74450474689877
N           1.07921048661385   -0.26319794478788   -4.60614058526929
C           0.93897492510890    3.07335201922029   -4.60892861227030
N           0.10342155305841    3.82464742262851   -4.37189487225135
C           4.18169714174882    1.52572637481646   -5.86231394143577
C           5.10024496951041    2.23124588227483   -6.69619863504520
C           6.13554843311269    1.59405078170235   -7.31961732203484
C           6.30720899540556    0.20562566166073   -7.12339378423423
C           5.40540748406046   -0.49919583177462   -6.27231121705090
C           4.33823843725669    0.18315894161143   -5.64557612062289
C           5.59785925119022   -1.88168479454740   -6.07508922574349
C           6.62749461923544   -2.53972152707685   -6.69123540060787
C           7.51220716503649   -1.84635506545759   -7.53106101107277
C           7.35560009748205   -0.50323344825487   -7.74279653193439
C           4.74432297575933    3.65594370623133   -6.71847713587180
O           5.23593052637265    4.55462618535581   -7.35690755187382
C           3.64771858679488    3.79524386521224   -5.70114146460063
C           3.35583257726528    5.02775322292418   -5.22319105683655
C           2.64607052540252    5.37886319636739   -4.04050742723418
S           1.75409904153122    6.85955751994287   -3.96261774299836
C           1.25868836004309    6.55718082784056   -2.32580922388755
C           1.80488769515676    5.36531835276683   -1.86409044951041
C           2.59028684361247    4.69826004873347   -2.82459114836621
C           3.32462631004358    3.51920372540902   -2.59642745928720
N           3.94841082120899    2.56906180503263   -2.44863540370217
C           1.56385601974323    4.87329479622259   -0.47436355476836
F           0.24738474086804    4.78713757239258   -0.18550631626975
F           2.08809737191202    3.67805371344381   -0.22544956415015
F           2.06826617758279    5.72140858902410    0.44987882670112
C           0.40183727559460    7.42522218003656   -1.60930492363911
C          -0.10804397583116    8.58439035508507   -2.10619733027493
C          -0.99721721644348    9.43097402776516   -1.41794634764223
S          -1.41687754756826   10.98513829653203   -2.09401790258591
C          -2.46789387986416   11.42655450086144   -0.76718641276403
C          -2.50122519263062   10.37408658222979    0.17066484551045
C          -1.67701395010712    9.27386447978584   -0.20654567082922
N          -1.79226648903338    8.31364759601532    0.74364977994964
C          -2.65817356465916    8.76711918060120    1.71308143572379
C          -2.98410808208250    7.98481736785977    2.83234475309914
N          -3.25024373370634    7.34180427632043    3.74322702003279
C          -3.11181714345737   10.03354969640985    1.39629588214915
C          -3.11373340606217   12.66272186348798   -0.78434594763889
C          -3.91192991427988   13.10233281332980    0.24686438860017
C          -4.60689417587928   14.31143343153345    0.32286827350278
C          -5.03831209162021   14.91792816104002    1.51241163242972
N          -5.03493082766818   14.38552167344951    2.80973317046631
O          -5.39909063150912   15.11433958762373    3.71549468905488
O          -4.68720113615511   13.22170249996730    2.97179875079835
C          -5.46225026800648   16.24994868287676    1.22857117175641
C          -5.31306354141490   16.49228615412881   -0.10720669189443
C          -4.86439840580417   15.29952256348424   -0.74918368306641
C          -4.89023835055450   15.05074108420290   -2.10652515727613
C          -5.12225574907722   13.77970203755256   -2.73959617388534
C          -5.29645509969524   13.98199195004394   -4.06823520290808
C          -5.13393830297829   15.38607495245819   -4.35118082028666
N          -5.07871343209322   15.85651467946133   -5.68143723388487
O          -4.71330991460797   16.99859134457014   -5.89128079205412
O          -5.37385147266705   15.06111534225524   -6.55613347555010
C          -4.90353555128281   16.07028550257420   -3.16711678864870
C          -4.62120139044644   17.44582857263124   -2.93059737591378
C          -5.19042900796772   18.49419746956746   -3.57941523793365
C          -4.85039712259330   19.82920937616790   -3.25288911208905
C          -5.50398249766386   20.93040744481140   -3.72241773332189
C          -5.15695894647482   22.32069099360537   -3.48596293938379
C          -4.20764682462335   22.79368309486846   -2.61647613272799
C          -3.92206924378129   24.16221915426611   -2.42446748247219
N          -3.63596315734347   25.25530568396689   -2.22219887363470
C          -3.40584913031638   22.00093743350724   -1.76926250129703
N          -2.72982730454989   21.42392889902187   -1.04162196401185
C          -6.03016571615548   23.14275614735046   -4.31531368386415
C          -6.94951780910246   22.29269179516978   -4.99492093867747
C          -6.69530330369902   20.89223289393071   -4.61887509002529
O          -7.34418982320897   19.92236302953075   -4.94326108716957
C          -7.90147598344231   22.78687907531188   -5.83934494881729
C          -7.97892606118437   24.18162657672855   -6.04971974137726
C          -7.06109879568213   25.03931579440608   -5.37666248427252
C          -6.08597343001131   24.49847323683709   -4.50800553584404
C          -7.14879427244950   26.42996603703778   -5.59167314127728
C          -8.09726558111976   26.95003673801965   -6.42967768720335
C          -9.00001041852900   26.10459323086800   -7.09204349561855
C          -8.94194131963847   24.74984667944349   -6.90645553299782
H           6.81720537263099    2.14284896460388   -7.95227027887722
H           3.67895647997619   -0.36662159373338   -4.99257055058023
H           4.91280932390262   -2.41114592895198   -5.42980335578326
H           6.76602012383696   -3.59886409221665   -6.53494804885609
H           8.31923180647388   -2.38142025202627   -8.00848671669747
H           8.03446852706746    0.03549185794245   -8.38736191716081
H           3.75536872928747    5.85674293220509   -5.80063577756742
H           0.16180092326665    7.12586586889411   -0.60176778753761
H           0.18559307265897    8.90238070182977   -3.09819634234577
H          -1.37340914129429    7.39773954101090    0.74847146173515
H          -3.78993600127885   10.60761139257321    1.99520538190413
H          -2.93280910488868   13.29568604748422   -1.64225959552179
H          -3.94690650708946   12.50251081239760    1.14369436742464
H          -5.84162867628105   16.92469967079271    1.97291420001874
H          -5.62337069156744   17.38260223801749   -0.61789426730159
H          -5.24698495550203   12.85341018987708   -2.21386893124406
H          -5.51668043994222   13.25195384449374   -4.82349419913705
H          -3.93545684849051   17.65077819183128   -2.11549188687889
H          -5.94466490803220   18.33680985263434   -4.33484989730619
H          -3.99776754920212   19.96304660083342   -2.59862464769229
H          -8.58710088139195   22.12022059197128   -6.34093991109702
H          -5.40470030116708   25.17483614976711   -4.01677089625811
H          -6.45212090831604   27.07689480613477   -5.07901635298415
H          -8.15734499766215   28.01652186804640   -6.58678363204125
H          -9.74168771387789   26.53220596484571   -7.74994547060782
H          -9.63424506163809   24.09393268188135   -7.41358340406976
