108
 SCF done       -202.479852043400          0.000393535977
C           2.13594407498693    5.10251716466945   -6.24860236233946
C           3.23878857233289    4.33942386414085   -5.96735559086496
C           4.09579588990023    3.79821973227844   -6.95001912972374
N           4.83193909063223    3.32904936840763   -7.69519573161123
C           3.68427098169328    3.97405269172588   -4.67962566426761
N           4.11131432486855    3.63558139927685   -3.66842374242480
C           1.68118602096208    5.46735534950729   -7.58623759029125
C           0.49054982284964    6.24129046722149   -7.46841018399630
C          -0.16722420464517    6.73383202793595   -8.55882488196471
C           0.34820785355315    6.47199193328715   -9.84741292252223
C           1.53828975640843    5.69855809681408   -9.97686109624838
C           2.19512622080886    5.20011626107969   -8.82790930113102
C           2.04502575815404    5.44501480636169  -11.26758317065789
C           1.40928313968532    5.93234170828597  -12.37738375849331
C           0.23837252786266    6.69407950046521  -12.24834145756595
C          -0.28158169161453    6.95779212714963  -11.00994243115862
C           0.15204144574296    6.39208701733223   -6.04941224180201
O          -0.80805396515972    6.98208687342188   -5.58776622778112
C           1.20694144594338    5.69057298997768   -5.29554683633353
C           1.30378349339919    5.63956371017328   -3.93401858710292
C           0.46963668739763    6.20408247170989   -2.94480588651648
S          -0.99795000091167    7.11293344864695   -3.17610173607397
C          -1.18090952816835    7.34650941764721   -1.46873521067471
C          -0.13688504639411    6.73149238597574   -0.75234688198325
C           0.77258203880385    6.09131317348759   -1.58937858392700
C           0.00766209058165    6.73476370800065    0.64572825531916
N           0.15359910120827    6.72554265909042    1.78429375771746
C          -2.27668427896409    8.11199541742228   -1.01091440882520
C          -2.49323016489546    8.49384204086308    0.27949167010274
C          -3.58443419368290    9.30850397414337    0.65381309521383
N          -3.77482967315073    9.78838112517872    1.92556889859598
C          -2.91415311034268    9.57716868111532    3.06622995350405
C          -1.68154107133578   10.47604650693130    3.02280322277626
C          -4.90986661420999   10.61552279675174    2.01234864532232
O          -5.26919045092655   11.16018585240336    3.03364828021741
C          -5.46128784017708   10.60675747069781    0.67050849919315
C          -4.63605941280896    9.79657958783465   -0.13373942867448
C          -5.19748854967504    9.77354574437123   -1.47139890107089
O          -4.83199638416915    9.22489235190295   -2.49154019754328
N          -6.33685424264378   10.58310239755454   -1.38296207872379
C          -7.21802590120336   10.76746141037245   -2.51328483833418
C          -8.46806238830796    9.89989518386981   -2.40122451606657
C          -6.50859667824254   11.10049496476480   -0.11877591663464
C          -7.53202003147647   12.00619528921713    0.21189659398621
C          -7.66587084666143   12.58834541489176    1.44435985472282
C          -8.65400417908882   13.55940900153742    1.67265429157575
C          -9.62035106519186   14.08714210858708    0.82439733393930
C         -10.31649066042054   15.09894745444507    1.53462213350069
C          -9.75191991558229   15.14036080895815    2.87737345453011
O         -10.02247067132448   15.79035948426835    3.84389502407250
O          -8.74379126794669   14.18158680201210    2.88227205517029
C         -11.28008719096924   15.61875845552174    0.68806909544069
O         -11.22241882396576   14.95223311723982   -0.50831249273571
C         -10.21098019791157   14.01090936706336   -0.49715435712352
O          -9.95772294427009   13.32118610714556   -1.45086927574253
C         -12.22119397579050   16.65379406659269    0.84504116210556
C         -12.20475893246421   17.52814203719023    1.89207571077324
C         -13.16199986151397   18.56377380433433    1.99630422132015
C         -13.06312117376162   19.63080521480358    2.84271945630134
C         -14.04245789446256   20.68157545372806    3.05190670888298
C         -15.27951823430972   20.78094623149059    2.46734713386482
C         -16.19170928608163   21.82819832118272    2.71737438548952
N         -16.97995205610427   22.64862091598143    2.87077962327343
C         -15.82794741322459   19.87068808431139    1.53988106017128
N         -16.34899379864338   19.18030698835561    0.78417094128704
C         -13.48740382734733   21.62200374191975    4.01921220776868
C         -12.19172433776055   21.17263134115327    4.40387397036466
C         -11.86199485413613   19.93652709799180    3.67490302601626
O         -10.81352919474207   19.33331715931911    3.70301611436677
C         -11.42440565783327   21.85911430760913    5.30006251240587
C         -11.92653529951326   23.05256400818593    5.86490041244360
C         -13.22094412075063   23.51149855826231    5.48440399475964
C         -13.99294489169317   22.77792446770710    4.55483770218276
C         -13.71003029883792   24.70743175007104    6.04879802452908
C         -12.95810445478654   25.41702785666686    6.94509392000255
C         -11.68412011718815   24.96374424749727    7.31929202911761
C         -11.17953952139454   23.80631252878226    6.79122949005312
H          -1.06760376747826    7.31761514847998   -8.43802845607375
H           3.09381810293240    4.61994560406167   -8.96307906351234
H           2.94669377993506    4.85809873826626  -11.36266757682237
H           1.80601800562258    5.73337713771362  -13.36152770807951
H          -0.24956011561973    7.07103633280339  -13.13459411512109
H          -1.18284942608785    7.54348171803552  -10.90367287188653
H           2.14969359210071    5.10657778625861   -3.51681897603228
H           1.63795556105408    5.56125491585811   -1.22957470507721
H          -2.97314579865801    8.42943438843735   -1.77768642489936
H          -1.80371870460974    8.19385418733893    1.05348386531538
H          -2.62356199329562    8.52473376630958    3.11550688034224
H          -3.51449229303725    9.82091587226498    3.94695442288843
H          -1.08066139356984   10.27312316490418    2.13919800892452
H          -1.07194875809059   10.30024522959747    3.90415237493127
H          -1.98190287325852   11.52096777767452    3.00873173162949
H          -6.64126901150458   10.47430681495791   -3.39468761043563
H          -7.49358350720954   11.82095614969858   -2.60036243262483
H          -8.19241543803107    8.85038051832017   -2.32780894970570
H          -9.08560103142835   10.03926233366904   -3.28333212700456
H          -9.05220556895623   10.17342636514074   -1.52627840550635
H          -8.22845399241719   12.28020395181522   -0.56859123854785
H          -7.00370334790340   12.34142894212636    2.26303395139588
H         -12.94383649071984   16.76348628252158    0.04669349311280
H         -11.43510290927098   17.45315809828420    2.64824306477867
H         -14.02218034942356   18.49162828112249    1.34221986318457
H         -10.44518412963485   21.49463537825135    5.57263159051524
H         -14.96732601643569   23.15469607933100    4.28771448948541
H         -14.69136009486994   25.05244713504767    5.75782963821655
H         -13.34095727462150   26.33234985595623    7.37092232296014
H         -11.10456307384925   25.53649350621456    8.02773300834778
H         -10.19940963075439   23.45214708510991    7.07507165157873
