101
 SCF done       -192.373712908845          0.000934720151
C           1.48391323433011    1.99814818380807   -2.09238570367591
C           1.38306638182864    3.00276133268010   -3.01875609692954
C           0.96013617141880    2.80820021455181   -4.35123584556398
N           0.63113370664879    2.71998756809782   -5.44662366223918
C           1.75772733847452    4.33845411620957   -2.78602471824039
N           2.03800873720377    5.44353369884134   -2.64829679243931
C           1.27096783137167    0.58211599766110   -2.37051075160154
C           1.87202926015751   -0.18665346073085   -1.33101780372242
C           1.84804847799643   -1.55242654405261   -1.34170194340388
C           1.19732732690559   -2.22044227690004   -2.40317456700501
C           0.57262854306999   -1.45642700041843   -3.43185353194558
C           0.62185216690477   -0.04347380814725   -3.39972016430625
C          -0.08729026687303   -2.13542233418027   -4.47586927185559
C          -0.12642644201056   -3.50309967097715   -4.50705497295532
C           0.49179827475913   -4.25432256319897   -3.49633658604112
C           1.13984046299673   -3.62680590922485   -2.46702721389864
C           2.44264287665111    0.72154663890677   -0.32781072561058
O           3.08794489274100    0.45420653368632    0.65688393014224
C           2.00774533624237    2.09886376428700   -0.75054759771045
C           2.10980431097802    3.09443814320058    0.17064165403393
C           1.52098603786238    4.37825685879080    0.23707302244992
C           0.36542791814920    4.88839814409689   -0.32587252014296
C           0.07690724985390    6.23935963668617    0.01230067945514
C           1.06849284365605    6.89715564238712    0.82456066418832
O           1.21093278618195    8.03312667475378    1.15938820863074
S           2.28067479518283    5.58573661946726    1.25740236787717
C          -1.06578273817418    6.60383574308919   -0.67877727269711
O          -1.49975459131049    5.55520622703277   -1.43246773138423
C          -0.68450901399231    4.45457252839178   -1.22692402136915
O          -0.90681397569310    3.40038115602733   -1.76341574747649
C          -1.75573393311462    7.83756317864431   -0.67065367170322
N          -2.50634741667540    8.34416416426661   -1.70252390481440
C          -2.76398450482185    7.72284920010461   -2.98148752164343
C          -3.98465932636739    6.80962877027730   -2.92768740811069
C          -2.99640823364393    9.62522025074672   -1.40255662639467
O          -3.66120295539360   10.28862248545333   -2.17266817759408
C          -2.52696964206846    9.88593951322055   -0.05713106523342
C          -1.77408813328333    8.76955842977811    0.36629897916728
C          -1.40855857852024    8.97452814550288    1.75739230864710
O          -0.87432508278954    8.26215611227559    2.57288255763324
N          -1.88849968926299   10.27156312933232    2.04589891697076
C          -1.71676483191622   10.85305828462309    3.35593312240473
C          -2.97806276592864   10.72107406411709    4.20558855003773
C          -2.56886841150634   10.81412824395893    0.99078603406624
C          -3.17259158160683   12.09685813314680    1.00992329390898
C          -3.86518785906822   12.58577634889081   -0.04967706341958
C          -4.46471447616230   13.87155726990927   -0.03318534449866
S          -5.36574203716228   14.49747595704381   -1.40464435878147
C          -5.60844119944825   15.93595738333121   -0.41982540632752
N          -5.04360839086729   15.83484204396897    0.75527835748165
N          -4.42525990911368   14.71769880069137    0.96539431551289
C          -6.34743048116032   17.05346420526883   -0.88973774451493
C          -6.53553844398939   18.18264209702772   -0.16289648553290
C          -7.29444047899581   19.26273156420692   -0.68240889278090
C          -7.53565527860127   20.43764740143848   -0.03686626882466
C          -8.31391984472711   21.56057565495200   -0.53654125441033
C          -9.01347636637383   21.61758534126438   -1.71370900629027
C          -9.76009403640031   22.73824455017387   -2.13768040089992
N         -10.39154407787236   23.60834746149754   -2.53991128912869
C          -9.11036918033227   20.58430546280911   -2.66968468663304
N          -9.24361736905613   19.79802006815297   -3.49616115884328
C          -8.24281283661601   22.62672891378644    0.45537527696216
C          -7.46757773708236   22.17374620670754    1.56109613495111
C          -7.00730026452901   20.79785166908517    1.31140692723479
O          -6.33813573203924   20.11108587467221    2.05103381919887
C          -7.23082291328643   22.96351810440135    2.64946834849531
C          -7.76711662501600   24.26978126011065    2.68305677464983
C          -8.54236636665595   24.73218085458525    1.58016562428146
C          -8.77141164825660   23.89143726862382    0.46758080856841
C          -9.07258905687416   26.03803039931987    1.62266126387686
C          -8.84864453330523   26.84923563551525    2.70148181794662
C          -8.08496119433016   26.39301794680551    3.78659245211885
C          -7.55586193170684   25.13087071994072    3.77779650079801
H           2.31508663196086   -2.11661881767820   -0.54814124193966
H           0.12790081628823    0.51176887826125   -4.18104848488651
H          -0.55945793796800   -1.55268810864999   -5.25291591419501
H          -0.63423331100498   -4.01384971787459   -5.31139333838109
H           0.45108673744849   -5.33248313017138   -3.53666414865518
H           1.61667513788011   -4.20010491419898   -1.68557145007192
H           2.72413143204075    2.83657931544446    1.03090872623441
H          -1.88063257510381    7.16351709489337   -3.29527361432080
H          -2.94544628910856    8.53902931033061   -3.68638777484841
H          -3.81865085582413    5.98973231357981   -2.23411146442328
H          -4.17154623552226    6.39624802703452   -3.91442172672425
H          -4.85950426767754    7.37343291474323   -2.61254407301195
H          -1.42524949646982   11.90115131407426    3.25227613121841
H          -0.89752108532548   10.30166285069468    3.82495426676382
H          -3.81793775681361   11.23297552149973    3.74127820869405
H          -2.80474060139851   11.15380621821504    5.18663865075133
H          -3.23466875159712    9.67191628772498    4.32974316931607
H          -3.07520597756506   12.70979816648357    1.89380290593002
H          -3.98424794316021   11.99969725909675   -0.95110144918281
H          -6.77056494319394   16.96544753193999   -1.88221990850089
H          -6.10680596593629   18.26332260174725    0.82494342923674
H          -7.70191034380086   19.12016486251482   -1.67562221217543
H          -6.63929088123973   22.59458903238774    3.47420793249557
H          -9.36056769700267   24.27350115254813   -0.35068255729539
H          -9.66003256599636   26.38443464054270    0.78505433880481
H          -9.25877279384389   27.84767586798928    2.72478182356305
H          -7.91805909714897   27.04693360298471    4.62937716464715
H          -6.96724795811536   24.77420949850984    4.61028287644072
