118
 SCF done       -216.941783405570          0.000771179130
C          -3.10002467725624    5.03982381508691    6.58549160479575
C          -4.21978969299346    5.48265780274827    5.93393977702399
C          -5.20997091914739    6.28415592083890    6.53822107373832
N          -6.02957918113880    6.95325220369079    6.98196126208200
C          -4.54752182735453    5.10957640575870    4.61343041257004
N          -4.86424342858803    4.79418597174091    3.55621646894290
C          -2.85009428349765    5.14731971526035    8.01652256104700
C          -1.90940177484898    4.14113098993947    8.38809175145853
C          -1.51970332130309    3.97099782348288    9.68568336486606
C          -2.05245058537629    4.81922170039557   10.68236405759538
C          -2.97818942583384    5.83861450270347   10.31327626654446
C          -3.37030192705050    5.98777495096804    8.96353906073224
C          -3.49492023477693    6.68290989147396   11.31699857191243
C          -3.12017277382583    6.52724787249652   12.62369705629616
C          -2.21114203923168    5.52203501558434   12.98668076227695
C          -1.68910360726153    4.68615839318132   12.03711843814042
C          -1.47910706963296    3.40116242770548    7.18833521299204
O          -0.73720231643923    2.45221442462887    7.11753291662050
C          -2.10546817386030    4.13317021254160    6.04245410448176
C          -1.63299549483686    3.96454484054384    4.78466058676159
C          -1.80515298905397    4.81789887966647    3.66121578402062
S          -2.03096597743474    6.55379516497934    3.77471736773290
C          -1.75564105241447    4.46782688146863    2.33294025066389
C          -1.60057609977946    3.21347828833056    1.57192387390484
O          -1.40076083652834    2.09165784114410    1.95900119745539
N          -1.70498940004007    3.60169876129668    0.24290679975638
C          -1.65464875883089    2.66373697981230   -0.85929828402808
C          -3.04442586348556    2.13365545949711   -1.19263664311292
C          -1.91474249896547    4.96260396293660    0.06361685371858
O          -2.02116268415956    5.50149062696360   -1.01040496589437
C          -1.94791101525834    5.52890884581043    1.42548332873084
C          -2.10819777835931    6.76024186846486    2.03405042519835
C          -2.31897397443534    8.06086991570607    1.51490973141529
C          -2.48712489265458    8.33313076529035    0.19471084946638
C          -2.72628538940398    9.62671548837624   -0.33463339365600
C          -3.00722894274222    9.90650061640723   -1.65527453894833
C          -3.19576927569148   11.30961167988808   -1.81240027031523
C          -2.99234583453794   11.89728557326525   -0.47313213033502
C          -2.72551709247764   10.88835524593636    0.39569268054963
C          -3.06233719054497   13.25158695291435   -0.12914912496945
N          -3.10672618611702   14.35580379612002    0.18581022345765
C          -3.51952089600699   11.99552579157260   -2.95994225738954
C          -3.67849652773511   13.40224751773457   -3.11334145227083
C          -4.01494616843508   13.68279077274982   -4.42058363087025
C          -4.08537738604207   12.41633724702767   -5.14180313162924
C          -3.78373319720343   11.40566545530223   -4.28914991979086
C          -3.74726030511367   10.04909071598911   -4.63251493650196
N          -3.72652610025534    8.94749403556070   -4.95644249353615
C          -4.25341732174622   14.93325935053402   -5.04520476028671
C          -4.10267811175520   16.13618216668172   -4.42960634707310
C          -4.30701558620266   17.38316863187661   -5.06633317817572
S          -3.98581952388003   18.85289694886034   -4.16289096031652
C          -4.71543505277648   17.71650048798530   -6.34794793278006
C          -5.14106989381828   17.03899706319526   -7.58685907582620
O          -5.25691002833777   15.86289286180223   -7.83802714534724
N          -5.41349205125605   18.06172640444004   -8.48334488977303
C          -5.84290692121978   17.82138179018806   -9.84495525760867
C          -4.65193652449984   17.69235798140087  -10.78775029641139
C          -5.18756692216133   19.33703978363885   -7.97348339061040
O          -5.32581940760520   20.36331893009401   -8.58757176854942
C          -4.75652425828282   19.10419221739289   -6.58491977362746
C          -4.39181501838939   19.89273188809208   -5.51354818443134
C          -4.34274691758410   21.30608816147642   -5.47289651371128
C          -3.89184745055482   22.01591164597328   -4.40937949988130
C          -3.76395857489751   23.42949303559879   -4.34528292955558
C          -4.49602545941875   24.37679187867005   -4.99818312613443
C          -4.21711206967671   25.80369896794219   -4.98428466035720
C          -3.03007733231140   26.39200716475805   -4.63300509474946
C          -2.79879967585710   27.78342726039446   -4.66512754772402
N          -2.55128126933807   28.90433052881547   -4.66047757693010
C          -1.86855483931729   25.70142502396268   -4.22694978833071
N          -0.87917672391210   25.21154273497564   -3.91110607547837
C          -5.38641744980154   26.49674433603364   -5.50683824443483
C          -6.35220608799496   25.52494195147411   -5.89408503516476
C          -5.83678060103499   24.17237479811591   -5.62281098959976
O          -6.42401296048248   23.12951505850694   -5.80537087356834
C          -7.55385473898102   25.87815947499757   -6.43775338741484
C          -7.84881768291384   27.24683807221091   -6.62528217473406
C          -6.89144386585866   28.22638726311567   -6.23150744128446
C          -5.65717598311054   27.83022388224358   -5.66809248229880
C          -7.19795945072643   29.58960190264423   -6.41946002721825
C          -8.39035471151253   29.96889863587628   -6.97307774999549
C          -9.33122172669129   29.00370602530114   -7.36250474728037
C          -9.06636256521831   27.67185044498260   -7.19235114163900
H          -0.81414002440511    3.19734491153208    9.94958750203186
H          -4.06586700460253    6.77180055828221    8.70710157487433
H          -4.19740229403157    7.45258947698813   11.03303844427693
H          -3.52296959595236    7.17765502582148   13.38545824701733
H          -1.92650312266364    5.41352949635540   14.02243348817674
H          -0.98908059096952    3.91053145402365   12.31090826771478
H          -1.00474777551936    3.09488413738289    4.61398996227972
H          -0.99509002865073    1.84574912854904   -0.56014021817352
H          -1.23094204573597    3.19021187872033   -1.71779384953200
H          -3.47047266604462    1.62734344608199   -0.32953954661856
H          -2.98034938972515    1.42863858387633   -2.01645343132915
H          -3.69943827640075    2.95211273697803   -1.48208912645272
H          -2.36819040479394    8.85223489265454    2.25069249095569
H          -2.45652020199570    7.52383213896892   -0.52262250889531
H          -3.07819040766140    9.18315570397943   -2.44374592309322
H          -2.53496615263499   11.00137621952167    1.44656176336718
H          -3.55261705372767   14.11210258514872   -2.32065705324764
H          -4.33393564922541   12.32736102665047   -6.18324835624738
H          -4.55985456800829   14.90477819091263   -6.08236646276167
H          -3.78776964264755   16.18133960756474   -3.39584097131018
H          -6.47246127279481   18.66395388462110  -10.14025253247707
H          -6.43002192080043   16.89993486729312   -9.84432574002189
H          -4.06357268522045   18.60695380628461  -10.77702841753499
H          -5.00316904334642   17.51429530255672  -11.80001967801839
H          -4.02047673567194   16.86015274718197  -10.48506624222637
H          -4.66372774245441   21.79418486148219   -6.38181566324168
H          -3.50667682324896   21.46904680549077   -3.55564228696103
H          -2.99563793673024   23.77718777118376   -3.66383093815253
H          -8.26750091835801   25.12090052162416   -6.72652501343333
H          -4.95636286467875   28.59535851063075   -5.37416068832077
H          -6.46947767679479   30.32869448504559   -6.11993192624795
H          -8.61503806307942   31.01536274817750   -7.11479170393647
H         -10.26690296487950   29.32099956213254   -7.79791218007835
H          -9.78678463031622   26.92425816084835   -7.49038871827531
