100
 SCF done       -182.093813354728          0.000692160243
C           2.45529459644086    1.46253481322121   -1.33209146818519
C           1.54308939831918    0.91570052089483   -0.47538996480893
C           1.89440582572955    0.13890554068078    0.64857741012769
N           2.13367409996214   -0.49668319757531    1.57334139841565
C           0.14770312124689    0.97206083001664   -0.67966912794920
N          -0.98639088655162    0.92597541851471   -0.84903826662522
C           3.89068303826471    1.21178683071782   -1.32925811157921
C           4.41233675571650    1.52421227630620   -2.62044023119610
C           5.73338462706895    1.34945789168824   -2.92124172797009
C           6.60734930275683    0.85736726463725   -1.92669025675166
C           6.09504025632038    0.55880502541029   -0.63005849695139
C           4.72230981618456    0.74243333463806   -0.34789073542073
C           6.98096806062218    0.07670470483698    0.35510531318800
C           8.30790845346791   -0.10449830231725    0.07508325429072
C           8.81097360612901    0.18837983785897   -1.20169830829177
C           7.97898539573431    0.65823249155656   -2.18119043952647
C           3.33317509525373    2.04643298619700   -3.47388020620233
O           3.37546059872331    2.35658301873618   -4.64005474869938
C           2.15550628548337    2.18321681209076   -2.55867248695169
C           1.13950868059173    3.00887604547844   -2.89015154299824
C           0.15629271672142    3.53969236139857   -2.00550529165579
S          -1.36613093749947    4.19602776864602   -2.58198193723584
C          -1.69669777246580    4.55723874026819   -0.89797413144606
N          -0.71954576382046    4.21274325676593   -0.11180655583414
N           0.28878681291143    3.65319155701047   -0.71530746396606
C          -2.93084699705056    5.15224878320271   -0.47979249877008
C          -3.18462024674966    5.40720325454050    0.80774420821514
C          -4.39829231014139    6.03712004788294    1.38380296606082
S          -3.92843308933539    7.75763723487687    1.94767010997453
C          -5.26836472879818    8.55046441743622    1.00940635159289
C          -6.35948919538839    7.48815631880454    0.85204726205484
C          -5.60608937187564    6.20523380533337    0.46685274439308
C          -7.29387262482353    7.84565941510863   -0.32764593065128
O          -6.93860629674381    8.55838568400155   -1.23482503200087
N          -8.48789430034437    7.22680741885890   -0.28660155255107
N          -7.11294686158541    7.28263181150207    2.06990014023531
C          -7.96016956041313    8.24282504854797    2.54852897456404
C          -8.39844748469583    8.29151555600503    3.81945680015247
C          -9.39391611936624    9.19759472082623    4.32871537064853
C         -10.07455449075112   10.11942889457688    3.53101040987359
C         -11.04663726635134   10.94893282974084    4.05939930751310
N         -11.65378059998263   11.87844831126347    3.14378655321840
O         -11.65681533714394   11.57494795825123    1.96757661928014
O         -12.11323703829104   12.91148870069607    3.58453167703187
C         -11.40961196734255   10.90254697368558    5.42096948068623
C         -10.70769023658689    9.98059433998217    6.21277375452933
C          -9.73601525558669    9.16256634183260    5.69086770044735
C         -12.50886299955618   11.65992880407005    5.95787173330382
C         -12.66426594260652   11.98646329610521    7.26053329396813
C         -13.77787197074783   12.70296863686112    7.78296926511569
C         -15.06459215071447   12.68492871803748    7.33011737889331
C         -16.14454564436669   13.51380636305494    7.84068535891828
C         -16.01117556566892   14.64443935231177    8.60363206508753
C         -17.09640980635437   15.42768727161306    9.04965377426193
N         -17.93525893826360   16.10078562501117    9.45145386276076
C         -14.78917145055402   15.20001079055720    9.03837989438988
N         -13.84250775059710   15.72447757880229    9.42277216534747
C         -17.40180776360324   12.97991813969107    7.33257012351095
C         -17.11219692854517   11.86997014959893    6.49037632637378
C         -15.65579361304890   11.66043398504998    6.42432934755689
O         -15.08987380878443   10.78472757567156    5.80470882874365
C         -18.09594113590838   11.16300507383457    5.86105368165134
C         -19.44318297934803   11.54514288559261    6.04512757783555
C         -19.74308947916102   12.65252249876521    6.89002325673197
C         -18.70240138745548   13.36199469088389    7.53219782998115
C         -21.09136863409721   13.02466169432617    7.06721945176610
C         -22.09535657907891   12.33925350738013    6.43921299160061
C         -21.79855117097379   11.24953012520234    5.60692993196153
C         -20.50068757199626   10.86103968765638    5.41406566097987
H           6.10764539708006    1.58584826949692   -3.90624456309643
H           4.36029734691935    0.51975211829675    0.64375255319677
H           6.58859155024381   -0.15005174050443    1.33542953894568
H           8.97808686011958   -0.47500730843023    0.83613603172166
H           9.86097205129516    0.04022019359568   -1.40473411868105
H           8.36049862690864    0.88553005665685   -3.16580883589635
H           1.11115073686166    3.36344732996984   -3.91413190091627
H          -3.63487849294605    5.35510832864365   -1.27275293161697
H          -2.41153853064965    5.17509153629063    1.52749227755888
H          -4.66697364668154    5.50452921135188    2.30105388110906
H          -4.90417896852350    8.87113308952430    0.03337356083504
H          -5.61143006756763    9.41570130859747    1.57385378985290
H          -5.27875216052439    6.32466762823542   -0.56537809132895
H          -6.25790553358509    5.33302993034304    0.52660780817262
H          -8.77302124164259    6.68085322149817    0.50744694068908
H          -9.15258864600883    7.41114245882891   -1.02028835354812
H          -6.62724478553577    6.75175930749495    2.78100585338177
H          -8.30897712158898    8.93995219525271    1.80045511819905
H          -7.99532361043652    7.58513842815895    4.53349646236736
H          -9.85785839256774   10.21387312185437    2.47841310548211
H         -10.96973208244777    9.89012442795841    7.25515233090631
H          -9.22765179434336    8.46308453716010    6.33843773541169
H         -13.24161653297290   12.01784670334838    5.25150611223566
H         -11.86580436429163   11.79131150428774    7.96524188680009
H         -13.56684688048385   13.29334554503385    8.66712230989088
H         -17.84747928615768   10.32566019829328    5.22584365500097
H         -18.96335602727234   14.19107405597504    8.17045941384541
H         -21.31500198723574   13.86534395302407    7.70749842209641
H         -23.12466077523962   12.63356264318268    6.57968067885851
H         -22.60331850664182   10.71983663810153    5.11933556517982
H         -20.26541966659816   10.02317896375597    4.77401867023859
