118
 SCF done       -212.593421673351          0.000649727684
C         -15.76423524781068    4.08241404829684    5.34439864979459
C         -16.03766483163008    5.41203937344669    5.15139325376420
C         -17.12595427304327    6.08232319578914    5.74584475659919
N         -17.99007129997034    6.67321924007255    6.21664681953424
C         -15.30496470314695    6.23170018032687    4.27097451804824
N         -14.74090242125823    6.91508357141760    3.54114045817139
C         -16.62548551198969    3.13834270736769    6.04897399626881
C         -16.29115301987205    1.81826824502968    5.62669642400621
C         -16.95479063969792    0.72417422864803    6.10177349951583
C         -17.99049630154931    0.90304105913878    7.04664132585713
C         -18.31848510200373    2.21895991211181    7.48424792042769
C         -17.62077047885017    3.33510783812672    6.96746644624762
C         -19.34657366520678    2.38207243559842    8.43464557716479
C         -20.02110128155144    1.29904300382520    8.92912604387259
C         -19.69835309555968    0.00402221248114    8.49711994377184
C         -18.70545281232339   -0.18963254802367    7.57536870351878
C         -15.16388739100133    1.88122939148616    4.68027133308724
O         -14.64532113395494    0.97509969462751    4.06987635258208
C         -14.73632657292437    3.31178942080159    4.67814224182145
C         -13.50487801411384    3.62231115574491    4.19128426546298
C         -12.70516727709602    4.76415431197609    4.43617446506026
S         -11.31452902280068    5.08066557978003    3.42931616461938
C         -10.84529849247821    6.44917049288167    4.37517676967845
C         -11.73648498645403    6.62932762903999    5.43911906537670
C         -12.77311354499311    5.68473069125572    5.46070139329951
C         -11.64958559534658    7.62224185328493    6.42750662718560
N         -11.61612680039353    8.40003599562367    7.27205821525720
C          -9.66566742826878    7.16581165910674    4.02689537149725
C          -9.18096498256147    8.21892708404576    4.71826823778549
C          -7.96421878924632    8.93076133057365    4.40320890454291
C          -7.50944984359529    9.01948111663581    3.07694873978978
C          -6.37070108728395    9.71072429627582    2.72995509299071
C          -5.60193083557926   10.33624370091964    3.70635757987715
C          -6.01620423178721   10.25744256126455    5.01419291314232
C          -7.18760098651947    9.57476403095996    5.37506060452142
N          -7.34153368560192    9.63515546554264    6.75414654473566
C          -8.31919752797695    8.97588728311570    7.58083685942969
C          -6.32480040195701   10.33996929659450    7.34173428148702
O          -6.22066505473915   10.53154772496134    8.53194845757245
C          -5.34666896370400   10.75975631114122    6.25222624027197
C          -4.00577260351308   10.03112934485584    6.52904802842680
C          -4.32559574779041    8.54411901740916    6.71132909111822
O          -4.78024098106249    7.78541208690264    5.88510231594074
N          -4.05566660080726    8.21793999120490    8.00767536221517
C          -4.32555687535688    6.92386041510551    8.57175699143970
C          -3.54769984128780    9.30000687808843    8.71021053714697
C          -3.19940989723355    9.36914783447406   10.04055940435209
C          -2.72861677516865   10.58779623629020   10.53735222203158
C          -2.59267999327062   11.68105774604550    9.68399955769293
C          -2.95073563637973   11.59950418470291    8.34543424622766
C          -3.43988526591765   10.40747596872981    7.86127979620014
C          -2.43301045159956   10.70427662990958   11.96993505431912
C          -2.74359136870104   11.86474783576304   12.66939273280019
C          -2.55395095449909   11.94123755598268   14.04102109039208
N          -2.97472921583811   13.15436790223570   14.69225956988269
O          -3.03103819698919   14.15733258604327   14.01308532059361
O          -3.25815387535771   13.10444435880028   15.87146429412376
C          -2.04191575751309   10.85993342748149   14.77778753620502
C          -1.69914570149633    9.71348463499830   14.05154658623147
C          -1.88820045373432    9.63630760398383   12.68969543002523
C          -1.84793891394957   10.89447378522620   16.21242709552552
C          -2.06811832376501    9.81559052900360   16.99337516296730
C          -1.90476353709846    9.85175072237560   18.40471576018397
C          -2.18035345711022    8.80661294998083   19.23272614520955
C          -2.08562739840785    8.79669512470353   20.68458103221128
C          -1.45995570204114    9.72772274025441   21.46948784993762
C          -1.39149198434123    9.65484769581076   22.87716551751770
N          -1.30270681963238    9.65276511257983   24.02155167603604
C          -0.75908745272482   10.85669692492585   20.99383070387293
N          -0.14979917755150   11.77928414019604   20.68464801720519
C          -2.72573614188518    7.57661331219001   21.16196326183921
C          -3.10628157429967    6.79166652938007   20.03619708570882
C          -2.74145939661211    7.49754840565182   18.79714596983108
O          -2.87627634746525    7.08452908855977   17.66403222996441
C          -3.72199079150178    5.58092735760396   20.17451984340287
C          -3.99858362754662    5.09273052311676   21.47057535407090
C          -3.62958366293540    5.87568419634998   22.60259350081227
C          -2.98848797893486    7.12341393681043   22.42818413850160
C          -3.91571667237081    5.38127233846487   23.89165478907073
C          -4.53503016385740    4.17239064720374   24.05632052208534
C          -4.89707562559763    3.40212955237500   22.94089234885537
C          -4.63438184611133    3.85238402612813   21.67566579272607
H         -16.69145402594981   -0.26708177686899    5.76388474123778
H         -17.88209390486767    4.31992743158230    7.32256730791372
H         -19.59353814737025    3.38134866003700    8.76189746823134
H         -20.80777274726721    1.43457954553470    9.65609013574644
H         -20.23990510820517   -0.83939844568502    8.89855588330049
H         -18.45241313704958   -1.18451015834363    7.23916673782557
H         -13.03895968372632    2.83816219196450    3.60169319206785
H         -13.51465745981523    5.65824036213201    6.23999360455231
H          -9.12723514467946    6.77796274194494    3.17315920524430
H          -9.73505543173720    8.56452685327307    5.57390937992415
H          -8.09883929077538    8.55372902631893    2.30262670052282
H          -6.06906114802570    9.76245838804825    1.69533771053310
H          -4.69901138780524   10.86557139474055    3.44288678996118
H          -9.30605089600346    9.43397401774549    7.49785641455347
H          -7.97885114790830    9.08466765439571    8.61187235855059
H          -8.38036643409844    7.91692521064775    7.32666469317025
H          -5.17797451504140   11.83865810933924    6.25846489209449
H          -3.32683200312370   10.19290491516076    5.68942229855497
H          -4.72559373092041    6.29742148503623    7.77513698724221
H          -5.05888341668175    7.00526137490104    9.37663753427595
H          -3.40895892323088    6.47605303664210    8.96056399530390
H          -3.33763740915811    8.52463265104020   10.69631027216063
H          -2.20060542142394   12.60931888719094   10.06966080536907
H          -2.85746219339160   12.46309737339821    7.70453482353214
H          -3.18508311611851   12.71110853033247   12.16529667455822
H          -1.26161742051742    8.87994020233530   14.57851188837386
H          -1.59946030925527    8.73662973897359   12.16796567097001
H          -1.54434478482975   11.82791258068911   16.66746120566462
H          -2.42722130763350    8.89343356549568   16.56044156214902
H          -1.57338021832059   10.79140434907480   18.82806268877486
H          -3.99788718023741    5.00438992941161   19.30394117282369
H          -2.72651653941948    7.69363140824325   23.30519068893118
H          -3.63437472204022    5.97725813725151   24.74737077833231
H          -4.74983277565360    3.80249569715384   25.04765239834829
H          -5.38540896365948    2.45061671048565   23.08940638345106
H          -4.91103986124749    3.26412948890849   20.81288094580336
