106
 SCF done       -197.039262600448          0.000939169186
C          -2.50882878561059    1.61798021060488   -4.09992227732207
C          -1.47991624011865    2.48083698347300   -4.36951111465179
C          -1.14738239847388    2.92142078070917   -5.66661504903150
N          -0.85415496942033    3.32724300283791   -6.69926650113813
C          -0.58961962943375    2.95936695895950   -3.38541328763565
N           0.17531581471260    3.33878987301439   -2.61810846748930
C          -3.27076848753249    0.86935373417659   -5.09066997645598
C          -3.84044659043211   -0.27293591791367   -4.45378728651355
C          -4.57274695111885   -1.18985095548158   -5.15184364647107
C          -4.77970087570238   -0.99727963823321   -6.53644426548293
C          -4.22719359935128    0.15179675833997   -7.17408835180878
C          -3.46770612340302    1.08201951835780   -6.42853255858001
C          -4.44665850471555    0.33414730668330   -8.55467789956869
C          -5.17293862435190   -0.57538653913339   -9.27401497142757
C          -5.71481329714816   -1.70714023405051   -8.64621406772219
C          -5.52237267962821   -1.91363631215896   -7.30703625802588
C          -3.51229331469318   -0.25074336542108   -3.01669055371024
O          -3.77582931194088   -1.07383898307794   -2.17467741180102
C          -2.83621723591189    1.06680397578221   -2.79870927519439
C          -2.74106700513192    1.58310491892105   -1.54898696030370
C          -2.52869793923155    2.93395764876272   -1.16758858308028
S          -2.96408750580095    4.31358076084402   -2.15874298880496
C          -2.43786329604168    5.47671150424265   -0.95662666004235
C          -1.96306770268365    4.79845890419050    0.15057241676479
C          -2.04051816973174    3.39543377827400    0.03340287484506
C          -1.49139502660244    2.78148144274738    1.25853382686711
O          -1.39100366650486    1.62694670858431    1.57407659681058
N          -1.10425185691727    3.87008099228484    2.02713076006498
C          -1.33333040230071    5.11359546392140    1.44619628455029
O          -1.04538021773779    6.16842490157581    1.94527582653797
C          -2.54412178442253    6.85363762111001   -1.27121265994685
C          -2.30102067778767    7.86300960337356   -0.39580755905206
C          -2.37060765154163    9.25819776939272   -0.64789889098867
N          -2.37451190915400    9.93018363450224   -1.85421600847913
C          -2.14622362298673    9.41631582835545   -3.18556156036308
C          -0.74803003511360    8.82903654860921   -3.35012593078252
C          -2.45223771461612   11.32370131156741   -1.66982778607075
O          -2.46211616824592   12.11934462296833   -2.58972821364341
C          -2.52328856451625   11.50311593796552   -0.23927298797627
C          -2.46319765118745   10.22156214221094    0.35461591101240
C          -2.55914165230430   10.38669914168583    1.79261870475534
O          -2.59119143556588    9.59937136676107    2.70829307483149
N          -2.62707112167541   11.78915933639393    1.96840998745260
C          -2.77169350732108   12.36746485403091    3.28250026041033
C          -4.21807813566116   12.75909952830777    3.57427187262291
C          -2.61788866203427   12.46051350556731    0.77307460721724
C          -2.67351409304578   13.87299394809024    0.65285400992358
C          -2.69693825243072   14.49245466839360   -0.55361758183970
C          -2.74171778074153   15.90435240975327   -0.68940719767766
S          -2.81536085543837   16.68051558875012   -2.26359111170022
C          -2.82239857268462   18.19462469799498   -1.37153801700080
N          -2.77426088423289   18.01083335962229   -0.07760204924716
N          -2.73171374525742   16.76919101031176    0.29337996136814
C          -2.87368522919948   19.45258871363770   -2.03277281265103
C          -2.83388975407854   20.62302857868124   -1.35171778739735
C          -2.91189632117680   21.93736599372033   -1.88974139168953
C          -2.65614519545438   22.41055169134631   -3.14404730845273
C          -2.82455673083876   23.80808867501800   -3.52665100230952
C          -3.60798871416546   24.73452695948022   -2.89167771537401
C          -3.75145247035706   26.07074294132920   -3.32292462769357
N          -3.90348204791797   27.16941879144403   -3.61835657088200
C          -4.41961946961271   24.48639993479140   -1.76344888607400
N          -5.12808227489401   24.36259080099197   -0.86817618131936
C          -2.09801906614687   24.02736755558527   -4.76926357537899
C          -1.59409211837809   22.77516210305807   -5.22008497633863
C          -1.96729407784999   21.71516851091791   -4.26863379403162
O          -1.72692813882187   20.53384308081082   -4.39398993931131
C          -0.88744830152124   22.65673821297359   -6.38257871055583
C          -0.64324632562923   23.81056973825510   -7.15979302254419
C          -1.12938946716305   25.07137761068400   -6.70673830396252
C          -1.86018124555787   25.16178892619441   -5.50010811742465
C          -0.87361603755951   26.21750846625824   -7.48703528373684
C          -0.17732043420204   26.12387934535109   -8.66124154980977
C           0.29690489219156   24.88147111096682   -9.10847792778902
C           0.06972750521385   23.74964944949632   -8.37345110231245
H          -4.98902953232453   -2.05316258316460   -4.65432330968539
H          -3.06696601754411    1.94851511594088   -6.93147179741294
H          -4.02431988006372    1.20506210148280   -9.03403303437096
H          -5.33346673574961   -0.42815446252006  -10.33146200360080
H          -6.28551641185478   -2.41441839917581   -9.22905311794892
H          -5.93703855378925   -2.78330027283550   -6.81876083623988
H          -2.90211005970718    0.89210516336040   -0.72635788489524
H          -0.67314474368636    3.77185635546107    2.93558485435402
H          -2.87153508692186    7.05590285426239   -2.27969568903255
H          -2.05472103974565    7.62131969171028    0.63130971236340
H          -2.25882380046583   10.28184367251224   -3.84663745176091
H          -2.91821865581834    8.68932791335438   -3.45109293017826
H          -0.00008475776523    9.58927552600733   -3.13860933816242
H          -0.61456543653146    8.48699896380615   -4.37268371048476
H          -0.58640601435228    7.98974289791215   -2.67816052592386
H          -2.10848474023042   13.23129534552937    3.37722386596786
H          -2.45155488367442   11.59508398846025    3.98746956848298
H          -4.57186776914560   13.50282912966222    2.86379587115893
H          -4.29167201347842   13.17067408618837    4.57691070695945
H          -4.85959206796330   11.88354459774158    3.51030124938079
H          -2.69343953950258   14.47579180401639    1.54878595094105
H          -2.68163311096855   13.91607872973947   -1.46854776147938
H          -2.94520628157684   19.42556027880905   -3.10823934504128
H          -2.79998990365578   20.56284781638059   -0.27120212274619
H          -3.18798280968599   22.68265101933281   -1.15163145208734
H          -0.52151578533710   21.69343173765089   -6.70568000184375
H          -2.21028440142100   26.13081188071374   -5.18186332426655
H          -1.24266526067250   27.17134668092484   -7.13980962233954
H           0.01135630404954   27.00708065367784   -9.25290459462973
H           0.84310493336207   24.82590495024532  -10.03822635776134
H           0.43290415027782   22.79050295428135   -8.71240598982694
