120
 SCF done       -228.116202695438          0.000967317048
C          -3.18762279361542    1.78594958568922    1.51607800317650
C          -3.98288799268633    2.55976574498053    2.31568049206704
C          -5.09090553917211    2.06287319048698    3.03368467598996
N          -6.00097403308228    1.70730865961749    3.63499799864438
C          -3.72599724030318    3.92105946055609    2.57660875130169
N          -3.52502006802404    5.01666271652869    2.85565758975178
C          -3.23750579176336    0.33847904618360    1.38758772805293
C          -1.99472221545188   -0.11784271852722    0.85380537647906
C          -1.74775414876816   -1.44583290671345    0.65179732255788
C          -2.74874946068365   -2.38959833764749    0.97334596017428
C          -3.99804615591333   -1.93733770393631    1.49058756989587
C          -4.22644160503130   -0.55754129935299    1.69273041837196
C          -4.99037485554302   -2.89031746045459    1.79836717108610
C          -4.76141873607732   -4.22592761593704    1.60915650188898
C          -3.53085479582228   -4.67039825980886    1.10231932687222
C          -2.54641690317085   -3.77213138056368    0.79135887185584
C          -1.12677495128154    1.03664791074303    0.57360036940462
O           0.01841092271615    1.05073539386972    0.18871202087208
C          -1.99266131584695    2.23017210056334    0.81891442100090
C          -1.67100967503235    3.42983263098895    0.28943072693571
C          -2.50634453120721    4.58079716909060    0.12225930051428
C          -3.76549464504924    4.67985971494621   -0.43536402500552
N          -4.59437038980551    3.65643038293942   -0.93149489604411
O          -5.59893879528027    3.99196719445940   -1.53121488179521
O          -4.27569173326449    2.49107390478659   -0.73734525814648
C          -4.13372933480670    6.07618452625678   -0.54907065722993
C          -3.11421756683431    6.83419546315210   -0.09074395993871
C          -2.05297301855422    5.96395515127099    0.35346459043874
C          -0.90139193569029    6.31769578317674    1.01089611346167
C          -0.11315708517796    5.48934838897126    1.87589121604307
C           0.76200119976952    6.27738689579712    2.54750058763803
C           0.60996350003618    7.64344712608414    2.10763139701681
N           1.49649561700937    8.63709830585745    2.55686346836710
O           1.28238829535495    9.80773001880805    2.27556484326248
O           2.45343285551363    8.26887169985864    3.21576403010050
C          -0.37983802982677    7.69923296748480    1.13243368006017
C          -0.77780310252462    8.71139742712477    0.23018674811443
C          -0.82021043172272   10.05289339313358    0.46968890300572
C          -1.25653740973558   10.96309537260806   -0.51428656004123
N          -1.42555863693925   12.30873799198727   -0.27931697368233
C          -1.07910205214753   13.01029176047734    0.93544561281564
C           0.43017286194466   13.16172781392999    1.10278253460494
C          -1.95403052315691   12.97732961046291   -1.39338985115981
O          -2.26075258456256   14.15466769646904   -1.40541912256857
C          -2.06766446289797   11.94565020240131   -2.40011045864320
C          -1.64695917906963   10.72174097587845   -1.83741189408393
C          -1.78720859956403    9.70957700801346   -2.86262483808400
O          -1.55148011944562    8.51980538695584   -2.86904179240846
N          -2.28134227517872   10.40784764154166   -3.99278734751251
C          -2.47586807233239    9.71527239085186   -5.24537808540963
C          -3.87110201675144    9.10733416036891   -5.35470256596983
C          -2.46667338910664   11.73003259442290   -3.71962810689664
C          -2.96855236388389   12.79295151523817   -4.53399079906981
C          -3.66472675705615   12.76538399917090   -5.67664231205509
C          -4.20108476167520   14.01470380309837   -6.32597349240887
C          -3.82572682842540   15.25640462783308   -5.58241939617948
N          -2.73320446476056   15.95308472488316   -5.80147899381379
S          -2.68926440460601   17.20769841387569   -4.76763370918649
N          -4.08777430854517   16.88599045129145   -4.01884330785147
C          -4.61936862868905   15.80696002242330   -4.54102496114466
C          -5.92382206048356   15.19975514196997   -4.10621537236004
C          -6.50437629891017   14.52021436347249   -5.30489690522404
C          -5.70200264266915   13.94341365809836   -6.32559996374550
N          -6.41646569923840   13.35367169850755   -7.25651308587920
S          -7.99201352941993   13.50555747570889   -6.89261962484639
N          -7.78732335454864   14.34104328559589   -5.51549286608591
C          -5.61273595703569   14.15764915911007   -3.07288032935289
C          -5.44674778578696   14.37653249137146   -1.76131352871167
C          -5.03432250165192   13.38869397666556   -0.76678813528074
C          -4.90084351907568   12.04114202496683   -0.96576988322135
C          -4.39472781475797   11.13137484943617   -0.01544709880300
N          -3.94493816305783   10.32832938521301    0.67190641840315
C          -5.21230201012596   11.35647369877650   -2.15803577437557
N          -5.44886905035567   10.72066297395380   -3.08495870879175
C          -4.77200513333808   14.09897793143520    0.47034023489291
C          -5.05704334894665   15.48256256839430    0.28431441342688
C          -5.55610062079310   15.70633723369562   -1.08305925070851
O          -5.99569136807743   16.72906441545716   -1.54943410941957
C          -4.87205307400670   16.39316650558185    1.28445645001663
C          -4.38453151888411   15.95505944065227    2.53631092423278
C          -4.11613199448795   14.56892457231234    2.73593640939990
C          -4.32434627696301   13.64830824290578    1.68619129940324
C          -3.63669439915520   14.14306717339931    3.99236571674301
C          -3.42977054166982   15.04120421895820    5.00330399940643
C          -3.69394553774758   16.40537277068062    4.80584423090890
C          -4.16169944592227   16.85213448943494    3.59953972320810
H          -0.80057897830127   -1.77367492819659    0.24963852183987
H          -5.18489435168579   -0.23764972187995    2.07058941241388
H          -5.93511127029960   -2.54333856509664    2.19007900499431
H          -5.52742898052731   -4.94802379043783    1.84904918152341
H          -3.36754585780645   -5.72803003376622    0.95877927952570
H          -1.59757642834621   -4.10882865337496    0.40000718534534
H          -0.66199282455595    3.51788453501502   -0.10561540727152
H          -5.08222387259377    6.40211066953031   -0.93077959617261
H          -3.12753289176732    7.89875942666519    0.03461932897800
H          -0.27368157128668    4.44174235415217    2.03594178825588
H           1.47108658414449    5.98066264265083    3.29739789703422
H          -1.10490951024933    8.35424830846959   -0.73876731522003
H          -0.56979548795734   10.43841640256584    1.44339889947774
H          -1.50839835717375   12.48641641162515    1.79348323905023
H          -1.54677844417934   13.99603974398251    0.85357403332898
H           0.91205424646555   12.19716954010794    1.24051960784852
H           0.63422887831002   13.77615462219111    1.97518086593003
H           0.85693622334331   13.64831045072082    0.22893522600812
H          -1.73260753483004    8.91244051267175   -5.27213149936403
H          -2.27471100017127   10.41135346649246   -6.06270621149870
H          -3.99744948828130    8.34110400862076   -4.59435821544995
H          -3.99692298699555    8.65279547298979   -6.33363925986333
H          -4.64115566198986    9.85912887894935   -5.20503091176119
H          -2.77384528847901   13.75399567494511   -4.07078523325366
H          -3.94779918613679   11.85058646463217   -6.17367816079036
H          -3.83502405349566   14.05516468326350   -7.35777607307107
H          -6.57906356765815   15.96973478747307   -3.69355272196149
H          -5.46147533051207   13.16312879046635   -3.46970195679287
H          -5.09193455602661   17.43751757081423    1.12050626506433
H          -4.12507939280719   12.60328677969732    1.86646503561482
H          -3.43708550596134   13.09194134376661    4.14123634655834
H          -3.06224906811917   14.70574748504820    5.96126523165517
H          -3.52693418387170   17.09980385147173    5.61534230023623
H          -4.36853119149964   17.90055463564553    3.44307265329390
