104
 SCF done       -187.334377982180          0.000550823363
C          -1.65264539227828   -0.75427532869271   -0.00124792748143
C          -1.44086307727246   -1.46052042775197   -1.15761660887789
C          -1.06294316678474   -2.81934155799273   -1.19483100801425
N          -0.75408526100142   -3.92024977155650   -1.29916077924620
C          -1.56693475736166   -0.95883413970231   -2.46947846066792
N          -1.65058548125583   -0.63144653244242   -3.56769402234557
C          -1.52065102061528   -1.29470214645429    1.34877114373422
C          -1.83204787825556   -0.26538150377189    2.28264506554562
C          -1.79118009411467   -0.47235604219922    3.63106975983977
C          -1.43020065484604   -1.74768631185798    4.12016498016131
C          -1.12019105027782   -2.78499483950706    3.19434758721064
C          -1.17044536200796   -2.53851822533251    1.80244255991046
C          -0.76363115266820   -4.05442955579309    3.69235115883646
C          -0.71393954741911   -4.28945323546467    5.03971427294625
C          -1.01776837428199   -3.26674340333266    5.95026899595133
C          -1.36857553788187   -2.02266732487873    5.50017046268262
C          -2.17679882846181    0.96038690588256    1.54988611116263
O          -2.50450311029188    2.02823051249042    2.04032711864647
C          -2.04755864699937    0.63754921866293    0.12217404883243
C          -2.25335776981357    1.51055703768616   -0.91344959530687
C          -2.63493073992581    2.86294213747488   -0.89633844119990
S          -2.99087903497536    3.85267807696558    0.49893276603146
C          -3.33042843283791    5.23006927546968   -0.49463536063282
C          -3.16923969169674    4.92646101754742   -1.85764144000481
C          -2.78303743862598    3.60358769589688   -2.06480029723150
C          -3.36045503139449    5.81967865537911   -2.92490398296270
N          -3.50557518639226    6.52286319574479   -3.82111858552134
C          -3.71093591448304    6.43826655376140    0.13989749492987
C          -3.96456306509627    7.61268606443906   -0.48868907569211
C          -4.34948977637157    8.83346176262090    0.13357332780242
C          -4.23000612490638   10.10475013665756   -0.44161669307448
C          -3.73714768743406   10.38620805186003   -1.81173700589472
C          -4.65669267456129   11.11073876546672    0.49103919322842
C          -5.08462440763513   10.42419912388103    1.63134522499592
C          -4.91218593350106    8.99878789964249    1.44595188036969
C          -5.36482969144791    8.16954146832505    2.44111468084951
C          -5.90690807828624    8.76012801987958    3.60235742560972
C          -5.98885471749249   10.11810091105539    3.70460969688742
O          -5.60038562148228   10.94579444845761    2.74379383488437
C          -4.67525111166690   12.53177720046097    0.42651300555622
C          -4.16197338583158   13.34463278201144   -0.53313057992253
C          -4.19408558773487   14.75935828747476   -0.47437872124420
C          -3.62063458297458   15.61545863635684   -1.39380208682081
C          -3.82066003076516   16.95700001100564   -0.98580480032500
C          -4.59110764132279   16.88663236427904    0.27668508233750
C          -4.80437717204007   15.57939659287118    0.56740479662755
C          -5.02974581787177   17.95548509191603    1.06517433083010
N          -5.40768414845743   18.79744238631827    1.74988445184123
C          -3.37096359372631   18.10572156566712   -1.60001019046102
C          -3.52857075424579   19.44976537258336   -1.14969519429601
C          -2.84044999623921   20.29467207315151   -1.99639069557015
C          -2.27843945535571   19.49055201823726   -3.06899694125590
C          -2.59210264824469   18.18561075840862   -2.84253977989432
C          -2.24614958815565   17.12165252662035   -3.68189832856407
N          -1.95734556568284   16.26351766538868   -4.38963959750945
C          -2.74338999291366   21.70255682403042   -1.83200432658471
C          -1.70275595614939   22.49394117408242   -2.21752690330940
C          -1.64840175080985   23.94311753414896   -2.15271667161945
C          -2.71389331082813   24.78748719272064   -1.97838190788214
C          -2.60905206719619   26.19352843864735   -1.94338682546536
N          -2.58712070530694   27.34065440199281   -1.90101657555716
C          -4.05758801710850   24.37776902326100   -1.84695067035786
N          -5.17399086621452   24.12395849475802   -1.75775192400200
C          -0.26956048487261   24.35012772074598   -2.39381633433505
C           0.50724808585399   23.18661334147901   -2.65950068639227
C          -0.34622232899966   21.98992098004298   -2.56639692990384
O           0.01248023801297   20.83657185451143   -2.66857112444203
C           1.84317680120722   23.25586117731010   -2.93092244943745
C           2.47694956858966   24.51826767793751   -2.95031547960511
C           1.70921387197473   25.68717869361391   -2.67741070585369
C           0.32703875519278   25.58341041709643   -2.39861262897960
C           2.35398922399839   26.94080181615865   -2.69159362232388
C           3.69145558174788   27.03719829760189   -2.96400618735859
C           4.44580687294614   25.88568025323999   -3.23437532361245
C           3.85136469956187   24.65303120201193   -3.22805206305912
H          -2.03080754906373    0.32715059987045    4.31646913827225
H          -0.92791252982218   -3.34599883312670    1.13046712045525
H          -0.53020585101579   -4.83881463846569    2.98744665286823
H          -0.43977427038695   -5.26546085603707    5.41110350262969
H          -0.97267198221711   -3.46918930648885    7.00992709476335
H          -1.60380500570988   -1.23098885288323    6.19658516675202
H          -2.10323232174948    1.12932537085876   -1.91626316731581
H          -2.61171445108330    3.18353511409980   -3.04130673141626
H          -3.75192716593532    6.37845113044832    1.21764425030188
H          -3.83208820456684    7.65023862659374   -1.55960448632457
H          -3.65946137374246    9.47950519087542   -2.40425514291586
H          -2.74944475937885   10.84677085469368   -1.77128712264919
H          -4.41219715453220   11.07397153839957   -2.31853617259485
H          -5.33627749479353    7.09555946348879    2.36152503471833
H          -6.25978361230436    8.14436927104282    4.41155061634072
H          -6.38692788541183   10.63410483709336    4.56534163933458
H          -5.13803678196095   12.99157496391337    1.29094982858155
H          -3.66312213619134   12.93341764309422   -1.39591269640602
H          -3.09162699128480   15.31843044907714   -2.27778172291084
H          -5.33732722165549   15.20946653237611    1.42351153811701
H          -4.04967747204272   19.74430897133708   -0.25922194432680
H          -1.74989981670273   19.87308524788728   -3.91985159343168
H          -3.57181520189461   22.15923231700839   -1.30282533774879
H           2.40906854858507   22.35768735654936   -3.12953218265687
H          -0.22493326614225   26.48599583607753   -2.18943065719727
H           1.76887778007648   27.82472283147978   -2.48406893251526
H           4.17593217502799   28.00208070062199   -2.97282946909493
H           5.50017140707894   25.98011934451690   -3.44724220638272
H           4.42678886327168   23.76251985925641   -3.43496693535432
