124
 SCF done       -244.788093723828          0.000954984500
C          -2.15279795660293    2.30735303075930    1.55011108928942
C          -1.54530510404494    3.44401978293877    2.00641425302745
C          -1.73226657492646    3.96618802382532    3.30495621757199
N          -1.86287004585371    4.43923896231596    4.34147423672169
C          -0.61361888517539    4.18813251570613    1.25669191635106
N           0.17189070198536    4.80571591643764    0.69055264428103
C          -2.95410905681962    1.38267246833832    2.33305132832686
C          -3.04533529745688    0.14295435534498    1.63111273797260
C          -3.72356443737681   -0.92394960673766    2.14813500156601
C          -4.35444013659151   -0.79636010032689    3.40563757486591
C          -4.28174961627407    0.44562868411170    4.10320876242487
C          -3.57229357686376    1.53279644836556    3.54697374360237
C          -4.92557054736121    0.56192113062516    5.35251743805096
C          -5.60504958034354   -0.49672952561655    5.89061744310475
C          -5.67354289737476   -1.71918918217918    5.20492387192527
C          -5.06158131776124   -1.86597383945500    3.98946943490648
C          -2.34994593581452    0.25162963585999    0.34015818481560
O          -2.16776269643329   -0.59408401363913   -0.49701648748185
C          -1.97531326527469    1.70436123292896    0.23590652792643
C          -1.75362967778886    2.24981216929344   -0.97062986743686
C          -1.69502543021811    3.65942609655001   -1.31179889597171
C          -0.62751971977208    4.16016957109123   -2.05985489035032
C           0.57024618224423    3.43419450271231   -2.55238395518723
O           0.84101408753149    2.27160919378505   -2.43388684828479
N           1.35711067585707    4.40827476384308   -3.18086713927900
C           0.78355615319079    5.68834608556937   -3.10754535215837
O           1.27535852352729    6.68369003782412   -3.56129816236220
C          -0.49596095276663    5.50945268113548   -2.38098474754487
C          -1.44026818206883    6.44654157479963   -2.00549850327345
C          -2.53095829153357    5.95758864192068   -1.29737277164086
C          -2.66897397382525    4.61122564537422   -0.95304335862310
C          -3.91928465615294    4.31032980370938   -0.22536599473104
O          -4.32294245173595    3.25066498901286    0.15735724379349
S          -4.83649704076745    5.82990196943419    0.03455961428861
C          -3.62776346855988    6.83478521147322   -0.83609281793186
O          -3.73588271229174    8.00999814749732   -0.99522209163888
C           2.58948158253122    4.23665490898942   -3.79384557720343
C           3.14398748006772    3.05428966976761   -4.10233797653361
C           4.39452497346381    2.84352798271534   -4.76248501218145
N           5.45621717760091    3.70426241788704   -4.91110410193900
C           5.67276151088415    5.00079510827762   -4.31103287378554
C           5.75338526776240    4.93155907934316   -2.78937338298074
C           6.50638995190456    3.10794069000198   -5.65498032169155
O           7.55730205586725    3.66268686080123   -5.89064495639786
C           6.00453421732816    1.79732532125117   -5.99229628680408
C           4.72215781081160    1.65948457222942   -5.41352346069926
C           4.22217833920358    0.34762256449614   -5.76471589177474
O           3.18407436125868   -0.22188395356467   -5.51620138602726
N           5.26577416204017   -0.23211100878858   -6.52991502598468
C           5.08053996615465   -1.54143622294722   -7.10905618007545
C           4.78262721916924   -1.46427735517314   -8.60443630086914
C           6.32114871664062    0.63262604528475   -6.68321222464319
C           7.54535565911714    0.48878398525698   -7.39480746196000
C           8.05684207383089   -0.59247518855453   -8.02033183036930
C           9.34830515589987   -0.58674315323785   -8.65734392344191
C          10.18442019110198   -1.70991962702356   -8.56100675294716
C           9.90624470942077   -3.02353258031587   -7.94713047727814
O           8.90299437498289   -3.43241829365587   -7.42370518196835
N          11.08674576208170   -3.77459524446557   -8.09255159478409
C          12.09438006245955   -3.05287493907246   -8.75334557759518
O          13.19198079070353   -3.44958083779082   -9.02046166297104
C          11.49151794564651   -1.72548794390578   -9.04504016923911
C          12.05254237701761   -0.62957076518887   -9.67353555078388
C          11.21067490353905    0.46344289164076   -9.85190181257920
C           9.89560709225719    0.49207763632820   -9.38943389916690
C           9.12893889472625    1.65983666431588   -9.87384683131866
O           7.95203790663730    1.85200432149336   -9.82973701047459
S          10.25015847141234    2.78979790092858  -10.72171722193703
C          11.64544762514266    1.67999642794389  -10.57574646448901
O          12.73300445426959    1.91244746246725  -11.00665073813523
C          11.15002843351784   -5.07925390596471   -7.64017984441891
C          12.24095880548695   -5.86695535268472   -7.63275338182919
C          12.14042342296179   -7.20442934013749   -7.15502291427462
C          13.17914389536925   -8.07486291898667   -7.04532480555798
C          13.11319474580948   -9.45494032351294   -6.58803878979090
C          11.98011091776434  -10.18718530141092   -6.35091266081468
C          11.98213590620617  -11.53461419991491   -5.93073453274918
N          11.91128576059973  -12.62828309416500   -5.58927996210959
C          10.65592575055128   -9.72735317467274   -6.51154330609148
N           9.55135501824687   -9.43636796566770   -6.63012757138619
C          14.47919528894918   -9.95143911838099   -6.47694569961961
C          15.37331175147330   -8.93482112268187   -6.91863158668458
C          14.60755628524622   -7.73930668130378   -7.31128689588919
O          15.05673595148776   -6.70057800240692   -7.74180310021018
C          16.72600393409128   -9.11848505547049   -6.93197421903365
C          17.25869844771166  -10.35026541162376   -6.49135000724187
C          16.37176954643531  -11.37118909761005   -6.04205632826458
C          14.97554160166028  -11.15293431450368   -6.04212643501704
C          16.91403861751645  -12.59551828704184   -5.60008904899593
C          18.26632436571946  -12.80309926394036   -5.60154210843935
C          19.13855786562976  -11.79719496003029   -6.04433302081972
C          18.64559775581507  -10.59721705946856   -6.48003560452937
H          -3.77869696897914   -1.85470044404575    1.60346460110403
H          -3.54578969488919    2.46650012218692    4.08689751134104
H          -4.86779781098044    1.50390510291387    5.87755226752207
H          -6.09368497777395   -0.39848261570846    6.84824672047032
H          -6.21465805613161   -2.54358221183115    5.64434233267353
H          -5.11209315054141   -2.80439639164296    3.45728614017753
H          -1.60166862533352    1.55556838998869   -1.79153428694866
H          -1.34425349560987    7.49519907724502   -2.23698443292057
H           3.03424341254569    5.18996851971291   -4.04094531451486
H           2.60598098478231    2.13787744188287   -3.90036179019727
H           4.90370378383772    5.70582841968299   -4.63642633784316
H           6.63284102794975    5.34151866411672   -4.71221632840032
H           4.82741874518660    4.55949858239707   -2.35807125890787
H           5.94908167190596    5.92300300037834   -2.39089568774843
H           6.56375822485043    4.27134438188376   -2.48973628110502
H           4.21963023703013   -1.97247302879395   -6.58866961272263
H           5.95361290775559   -2.16576151066857   -6.90431724705775
H           3.84468447492773   -0.93916958416457   -8.76747068801882
H           4.69415112721015   -2.46727322219496   -9.01241276604800
H           5.56915954799777   -0.93435234270559   -9.13676480185029
H           8.12800533164627    1.40120001066513   -7.36781255965141
H           7.57789527534476   -1.55725525435304   -7.97386990031625
H          13.06884428133048   -0.62246230735397  -10.03283995536362
H          10.19308941019674   -5.42715817103547   -7.26572375900543
H          13.19759800986331   -5.51511786406547   -7.98747329016120
H          11.15122691745991   -7.52825682827106   -6.85612445849670
H          17.38139166198036   -8.33102015197055   -7.27343833113148
H          14.33224750628015  -11.94416478384423   -5.69143075272693
H          16.23833777039891  -13.36703038905357   -5.26114345778011
H          18.67197213509689  -13.74409123251406   -5.26137940232740
H          20.20301266068686  -11.97809085878904   -6.03802449046553
H          19.31217552419470   -9.81907097052049   -6.82197281761806
