126
 SCF done       -239.652224530411          0.000976629913
C           1.62825569726566    5.66003044032031   -9.37531533846347
C           0.89885902430253    6.80721745584743   -9.19626519293091
C           0.02872820596750    7.34170054464601  -10.16938676973592
N          -0.69434707753317    7.82169413822691  -10.91988782293445
C           0.87935213551065    7.54484654752786   -7.99982247531059
N           0.79325066461615    8.16566001015395   -7.03633141204585
C           1.52516056417916    4.75500529540788  -10.50950716148606
C           2.01452387924781    3.47310958045271  -10.11693891144644
C           2.02348583314152    2.41620242005575  -10.98149165585574
C           1.54536395678633    2.59997844066570  -12.29853384803631
C           1.07313646328495    3.88394079400971  -12.70058777159013
C           1.06911285098002    4.95945351772273  -11.78339097493902
C           0.61238536236452    4.05470753381112  -14.02180642746660
C           0.61377911894525    3.00909165389402  -14.90461039047390
C           1.07600682020293    1.74538425578657  -14.50746758971272
C           1.53116516607524    1.54510561568544  -13.23234356815632
C           2.49199229527167    3.53856055711111   -8.72721640259283
O           2.90289814517966    2.64800649586659   -8.02122911994585
C           2.42628643295083    4.98959060292055   -8.36968044676496
C           3.16681742354986    5.44795371434298   -7.32956868854937
C           3.57240237305188    6.77497298084598   -7.02378197688151
C           3.81753582962411    7.86191831302246   -7.86544600675825
N           3.92867895688368    7.89551804807153   -9.26206111732812
O           3.80436877378358    6.85497147356413   -9.89753880825682
O           4.14681782762200    8.97758638090927   -9.78173116509072
C           4.07893798163508    9.02729471235699   -7.06819782633221
C           3.93464619896152    8.69634068487420   -5.75869316865652
C           3.67587109300010    7.29055292839971   -5.66099481947726
C           3.60534532315598    6.58564112483583   -4.45990668594214
C           4.12413358844574    5.29723994465484   -4.18140772033402
C           4.15321635807327    5.10707229894856   -2.81800611716110
C           3.59140167235071    6.23734554241895   -2.18233478363487
N           3.43532785166533    6.33299782667059   -0.78987100860007
O           3.82569885061905    5.39450924197676   -0.11804603637484
O           2.93617952390788    7.34576464285220   -0.31892521592066
C           3.19011349738634    7.16621851376804   -3.17138863381863
C           2.36866801200737    8.27117820624871   -2.96623386564159
C           1.61797122707287    8.91543188152358   -3.93501647972449
C           0.83152757898696   10.03576726225012   -3.67921884951464
C           0.65636340210315   10.71531467864207   -2.43926937447354
C          -0.21366000199818   11.77475713807037   -2.63105481347448
C          -0.58756510279984   11.75983603128293   -4.07905759171619
C           0.04086546839635   10.70852604854039   -4.67345123267723
O          -1.41706125043560   12.66796455910446   -4.56659399007393
C          -1.76508655740412   12.58027658905546   -5.93358175028988
C          -0.69893298121141   12.67667498769880   -1.68123687702149
C          -1.53034994471492   13.76912817978797   -1.87957548141666
C          -1.76395800924183   14.40443240779192   -0.63587763988696
C          -1.05416387272609   13.65346776510805    0.38224170501461
C          -0.42141163563804   12.61461951904532   -0.21624704661776
O           0.32395370954945   11.63981673872510    0.29884112752478
C           0.52760081177753   11.64590484451813    1.69749899078007
C          -2.60518166574602   15.49244039789871   -0.35588291344869
C          -3.81683653356147   15.85320626653151   -0.97319230617602
N          -4.35701949584775   15.48743105601677   -2.22260928482329
O          -3.60369006507672   15.21189820489782   -3.14053923716457
O          -5.57163018965916   15.50992247224074   -2.32077752588063
C          -4.59037990318418   16.61975356438318   -0.05411268961760
C          -3.87151840873982   16.82520048721811    1.08873020461662
C          -2.57327362186099   16.25814986198142    0.91559775295091
C          -1.41390538585657   16.53891382054659    1.61356450483459
C          -0.08179673921074   16.21120445987358    1.16059623180211
C           0.79774353838459   16.41824272010264    2.16809649461071
C           0.06266679415163   16.89963118506626    3.30936304003480
N           0.66971734730281   17.24010861489820    4.53028486303616
O           1.84966991694008   16.96738521364485    4.66307848706496
O          -0.01327194047558   17.78134361887674    5.38578869212186
C          -1.27270658514860   17.06539429461426    2.97790147876840
C          -2.25604391515399   17.60236845658401    3.86863777876213
C          -3.10881557961933   18.60867625401772    3.55885290030377
C          -4.02715525196851   19.12196975181320    4.51204264274074
C          -4.90346535467914   20.13544259344560    4.26614865316517
C          -5.84361831924356   20.72254975527565    5.20738026604392
C          -6.22527705666245   20.19771094005617    6.41344495967296
C          -7.15786526994251   20.80810370198495    7.27939867619650
N          -7.90533422364949   21.25600391436675    8.02618367288985
C          -5.79085640676841   18.95998842568482    6.93452558457731
N          -5.50579049049483   17.95146678721090    7.40320773329831
C          -6.36820558360146   21.94113423397032    4.60419091296323
C          -5.86489031822525   22.04620873310109    3.27503650203125
C          -4.98433744205348   20.90344301676894    2.99048117363771
O          -4.44581431802978   20.64100686843530    1.93551405165829
C          -6.19879251889039   23.08801897447459    2.45748261702259
C          -7.06176111064119   24.09521406806505    2.94273200958668
C          -7.56414684052184   24.00108322695513    4.27338285037308
C          -7.20449911240393   22.90889713608928    5.09541279740650
C          -8.42288201269003   25.01331438028540    4.74810664197990
C          -8.76983499378241   26.06832292528553    3.94865646818666
C          -8.27431781875716   26.16030872625932    2.63920328440299
C          -7.43874652942508   25.19475882271890    2.14671020709751
H           2.39487872568281    1.45189807916351  -10.66772518350194
H           0.72518459980409    5.92668608368517  -12.11518110292685
H           0.25582082065560    5.02883208569471  -14.32222603653777
H           0.25888053088677    3.15006460591646  -15.91446082936560
H           1.07107748425951    0.93179731605984  -15.21723276072585
H           1.88928594888308    0.57447932891711  -12.92187560639184
H           3.51599779780143    4.66947141594169   -6.66099599393669
H           4.34707610955387    9.97944892455070   -7.48364731087427
H           4.08927789250977    9.34190946591933   -4.91639537939982
H           4.55697727000197    4.62725784774866   -4.89841228174115
H           4.53937828492515    4.25219280918415   -2.29503320439420
H           2.25884913327570    8.58727767683358   -1.93650798690080
H           1.59208686511273    8.52814891620110   -4.94458367095354
H           1.10303104841291   10.44582114125057   -1.50346580974010
H          -0.00845121207508   10.39438722158670   -5.69735885822924
H          -2.46630000131580   13.39251663350467   -6.11357001956176
H          -2.23986456878063   11.62086897576140   -6.15426449985386
H          -0.88333494895598   12.69841528419023   -6.56889767704630
H          -1.89419652026738   14.10928398331986   -2.82785791434540
H          -1.10282968367713   13.86682571508325    1.43089866712166
H          -0.42075559774532   11.53655114780634    2.23006637152044
H           1.01560946478359   12.57089625738297    2.01649990583711
H           1.16998277002493   10.79417348795866    1.91203244233251
H          -5.58322009161490   16.96960311391657   -0.26706084846290
H          -4.20306548719896   17.38447473297562    1.93816566312666
H           0.15425133207393   15.89308707085651    0.16479206357602
H           1.86290787546819   16.28922319259224    2.16059246491024
H          -2.21936718219084   17.24947059818772    4.89374709659105
H          -3.07038387520095   19.08196197701782    2.58770746947223
H          -4.00062763497499   18.67112831066948    5.49588468472573
H          -5.80614651367980   23.14345059664384    1.45296591735552
H          -7.59679068575232   22.86938879579652    6.09919542022473
H          -8.80246902273702   24.93773652566333    5.75646392357695
H          -9.42856175308653   26.83828679417233    4.32112002846865
H          -8.55785638180134   27.00015983834768    2.02284802230698
H          -7.05415890460321   25.26025500768298    1.13947888445442
