114
 SCF done       -213.931774281157          0.000995653930
C           1.74023066930856    6.93359812860485    1.75860936870516
C           0.61898467410799    7.68955149244500    1.54425370840972
C           0.62629669218298    9.09823153260269    1.56738248337198
N           0.63854801922466   10.24571603561281    1.53146566792076
C          -0.64985028656143    7.09279608696054    1.36923293763285
N          -1.67778822264475    6.59091038253615    1.28683317140660
C           3.00837939113184    7.41504013440634    2.29789752777043
C           3.70282829852831    6.30896391499635    2.87260543299598
C           4.90892411630594    6.46384229162741    3.49390426369919
C           5.49292454355578    7.74891150326307    3.55535939031021
C           4.81180332066600    8.85470884933722    2.96879576995423
C           3.55764694025959    8.66772934893418    2.34281209792733
C           5.41149868176056   10.12913771368934    3.02678331496605
C           6.62458760193900   10.30530499304052    3.63470745359582
C           7.29408155730448    9.21623416476017    4.21256119456333
C           6.73984072443412    7.96563687475168    4.17468305255300
C           2.93717998099371    5.07242972132016    2.63891637291978
O           3.18268320038529    3.95264696099794    3.01841037320006
C           1.81671131642028    5.48427821291984    1.73597550220230
C           1.27507828429999    4.54887145433344    0.91457572333859
C           0.57921414391913    4.73323872647162   -0.30849758375161
O           0.29953107090555    5.97541868363839   -0.78401760070298
C          -0.22429868496646    5.86635684840248   -2.01363373497806
C          -0.27126414021068    4.50686818401992   -2.35662583899305
C           0.23070995959191    3.78876225650813   -1.25597469611975
N          -0.73686480755233    3.95251468645185   -3.56849047428391
O          -1.10302410273040    4.72291178956349   -4.43810578240387
O          -0.72652688549856    2.74333328277499   -3.67064492538063
C          -0.61488653027779    7.03849730981357   -2.71252324913339
C          -0.84855527232468    8.18043802291946   -2.01275931338183
C          -1.13771750191429    9.49849044340607   -2.43224820336932
N          -0.95303202069831   10.10494905554237   -3.65034845738690
C          -0.55353005891754    9.48571103400566   -4.89023276859947
C          -1.74147314701352    8.86050719795523   -5.61768103309371
C          -1.21540072958727   11.49426081995402   -3.58731495835300
O          -1.09300629672777   12.24004928779014   -4.53341427866257
C          -1.61050710332020   11.72033508475726   -2.21147558046300
C          -1.56704934886984   10.48293948125044   -1.54324136493288
C          -2.00740939296136   10.69018037669028   -0.18064991098812
O          -2.15686926519960    9.92630589918489    0.74578061333344
N          -2.29061043309802   12.07525205559651   -0.11400096408644
C          -2.61184679659301   12.65995970963637    1.16790404170633
C          -1.43548455676969   13.44674356275762    1.73673823590221
C          -2.03438379309904   12.70054902516681   -1.30869959734969
C          -2.12224868088903   14.07815275985183   -1.64034936277325
C          -2.80002586875452   15.05782004439604   -0.99270348354505
C          -2.77805991197052   16.41754944989056   -1.39830247053598
S          -1.56326092911826   17.02914983997934   -2.47204243322227
C          -2.20617484919124   18.63899577159771   -2.36717042473807
C          -3.32128414578558   18.68219498348608   -1.51856097562614
C          -3.63718917769763   17.43018373626775   -0.95853761770015
C          -4.76917432373400   17.23349813309638   -0.04716007813169
O          -4.99806556015766   16.18202538812142    0.52704255511761
C          -5.64701927205204   18.41388372813733    0.11049526539848
C          -6.83132805254431   18.26766581779037    0.82840342335399
C          -7.69295210054168   19.33649510118504    0.99352029188880
C          -7.37580684423520   20.57232276304475    0.44917900940985
C          -6.19633985840341   20.73444734717802   -0.25428802041013
C          -5.32544119308304   19.66330963198761   -0.43543978803927
C          -4.07010681226166   19.89973312173446   -1.18145163839213
O          -3.69708791079622   21.02389085192440   -1.46684987411074
C          -1.72015645502780   19.75520209992162   -3.08603586846159
C          -0.51637876437153   19.92363950519994   -3.70139120870149
C          -0.08895343519415   21.14445665009032   -4.36830207810772
C          -0.91039282015063   22.10439339857047   -4.89168654412399
C          -0.44103637988649   23.26820645373884   -5.53675784117827
N          -0.10880108503340   24.23113053217178   -6.06533275786693
C          -2.32048950376768   22.02017295331384   -4.92477828401816
N          -3.46244636078918   21.99528367530561   -5.03329361028833
C           1.36487972131751   21.10685886643712   -4.45784183795646
C           1.81184912036635   19.83152148069012   -4.00376246319816
C           0.65322295211670   19.02534008089946   -3.59353675175691
O           0.66388514243868   17.86721434793612   -3.22404619310285
C           3.13549542280875   19.49684494073670   -3.97957926506327
C           4.09184013645091   20.44504660932178   -4.40550566500135
C           3.65410272442517   21.72571148132818   -4.85263881015334
C           2.27564054170404   22.04040119150369   -4.87543273676962
C           4.61936961326315   22.66545143943933   -5.26752481113814
C           5.95256354026834   22.35748725354983   -5.24273211591380
C           6.38215451345851   21.09644400689955   -4.80302229886646
C           5.47154533710423   20.16023200784088   -4.39418602243830
H           5.41470711590898    5.61470324246438    3.92876942173948
H           3.06706102659183    9.52003937044532    1.89941537762188
H           4.89093049833186   10.96520457292185    2.58332348264971
H           7.07511291867791   11.28574094039227    3.67450466069582
H           8.25086931998563    9.37322023894474    4.68748671118631
H           7.25052791827129    7.12326135706270    4.61762370476142
H           1.52255936859122    3.51893928720165    1.14354435260721
H           0.32631484717687    2.72492580401052   -1.18510906152340
H          -0.75798555212091    6.93726916958269   -3.77594541280932
H          -0.84621247525216    8.09907031111958   -0.93246529509266
H           0.22129783703504    8.74232860537406   -4.68730299398385
H          -0.13005581606189   10.28386779192965   -5.50713263595340
H          -2.24258755800197    8.12373702235285   -4.99426733458944
H          -1.40142174639221    8.37301542952515   -6.52686847529818
H          -2.45868133999767    9.63319153196952   -5.88335601491208
H          -2.83202408907364   11.81115030020037    1.82248195768026
H          -3.50912515790513   13.27728353006818    1.09258318868746
H          -0.57325857461652   12.79171848202740    1.83671511609621
H          -1.69664993786523   13.83452656507005    2.71723243851912
H          -1.17178252079672   14.28070528030419    1.09037565638317
H          -1.60084765214453   14.32694337535686   -2.55825406620422
H          -3.43735234468825   14.84627825828057   -0.14780548476280
H          -7.05686657091994   17.29835357766683    1.24778060006037
H          -8.61090817919323   19.20761219872536    1.54695486355996
H          -8.04661225065605   21.40861683312310    0.57565760231278
H          -5.92630512214822   21.68879878094670   -0.68141794825442
H          -2.39401095424676   20.60535632286266   -3.06549808720459
H           3.44897794932611   18.52265528753404   -3.63477874096334
H           1.97437314857491   23.01915668030178   -5.21403353389859
H           4.28422506606949   23.63459385542575   -5.60649139278642
H           6.68397213570282   23.08462515759134   -5.56191110646613
H           7.43790759502253   20.87073351403767   -4.78953689692955
H           5.79593881726379   19.18746726076125   -4.05459924629553
