122
 SCF done       -251.068032869493          0.000860436996
C           6.84223569021246    3.45990385241959   -1.94387550726334
C           7.07285391406520    2.18457546991135   -2.37531412799306
C           7.65258147559119    1.17072802032032   -1.58246585943429
N           8.11763298457793    0.31409393726402   -0.97796231774094
C           6.70607758929215    1.72936503034978   -3.66039744129827
N           6.38038481816832    1.32296355222822   -4.68259518590669
C           7.07492719805914    3.99307340081219   -0.60986874626474
C           6.55582802462366    5.32295213334628   -0.53848393564512
C           6.62696248601274    6.06196389883886    0.60959264337871
C           7.23676917638540    5.50120590290825    1.75314144373925
C           7.76736257182626    4.17889002119730    1.68609638959470
C           7.67458867354541    3.43463569409827    0.48837510984131
C           8.38265223034212    3.63477350551377    2.83159846331905
C           8.46987910486309    4.35955458466522    3.98942611349328
C           7.94577548425370    5.65946057716198    4.05526717810955
C           7.34187318496356    6.21848425630556    2.96138491115518
C           6.01356510046011    5.70257424458922   -1.84386545228334
O           5.51432423644640    6.75115099442432   -2.19566945334472
C           6.25122974176387    4.53051453233519   -2.73041384357116
C           6.04508691526941    4.64005741925726   -4.05806365777073
C           5.47753676817828    5.83821594086140   -4.62732469601251
C           6.16350299110647    6.75042254466335   -5.38116278693032
N           7.52948446044760    6.62785735562112   -5.70260801298496
O           8.02952094333435    7.47231066496519   -6.41498346094574
O           8.11902382241871    5.66408847324940   -5.23568338745560
C           5.30670797127623    7.87608846359780   -5.69926300810832
C           4.10794872546235    7.66879875367755   -5.11381131318385
C           4.12036737303706    6.38737728735432   -4.44038041690519
C           3.07041204377744    5.73152999138607   -3.86345182212046
C           2.98703486285639    4.32002244131722   -3.56224779309286
C           1.73113327137856    4.03882204674004   -3.15628691825741
C           0.95565773649381    5.26615735666759   -3.15783732369877
N          -0.35783124005606    5.30528403539068   -2.63100950851945
O          -1.06203490079678    6.26903176490289   -2.87039011088144
O          -0.69830884809712    4.35622823364600   -1.95291474052473
C           1.74872985106233    6.31307621813948   -3.56744103156725
C           1.46801187895203    7.71991337319635   -3.52525300422705
C           0.34090847395333    8.28105142845725   -3.99407062125762
C          -0.03537425508487    9.66237392451281   -3.82580428756246
C          -0.68494374959342   10.39050791637461   -4.84194161813022
C          -0.88482480500559    9.84931056478178   -6.20227601723853
O          -0.50379438062672    8.80457992216040   -6.63758845729591
S          -1.78680574380141   11.04984338367589   -7.18390654511403
C          -1.81168269420689   12.25940307959944   -5.86352536986610
O          -2.30376149398781   13.34245434757519   -5.98673709418160
C          -1.15404840612003   11.68941312874657   -4.66803332215657
C          -1.00340333138350   12.39233232390482   -3.45544598278056
C          -0.40159919171859   11.64480474036451   -2.42939427830532
C           0.07762239231232   10.35149629456450   -2.60808006808444
C           0.54682037679056    9.87069845014906   -1.28116661707362
O           1.07322623643616    8.85170286990767   -0.96497204133329
O           0.26538648668217   10.86403719229394   -0.37349490586364
C          -0.32113766974417   11.94421465680720   -0.97646010183810
O          -0.72279351326647   12.88409625421826   -0.36327525673273
C          -1.44554175019177   13.75050574144806   -3.28848648821852
C          -0.76239686356313   14.67274180733896   -2.57670656263914
C          -1.17872997602791   16.02636192971851   -2.43398823198611
C          -0.37541839071264   17.14764681783558   -2.35094525426086
N           1.03539131935359   17.19120685935095   -2.29026620102966
O           1.65216050820247   16.14718039084486   -2.41630927619905
O           1.55018166950661   18.27768234368034   -2.11246608024654
C          -1.19551692497992   18.33568668471059   -2.37386824167709
C          -2.49038109691031   17.96808859101305   -2.52172127270715
C          -2.56219533218928   16.52398652402224   -2.50602552903936
C          -3.70082640847873   15.77501306638568   -2.34615927268231
C          -3.82189479321961   14.55095993760913   -1.59711705939894
C          -5.13840023434991   14.31913111067194   -1.36306503599384
C          -5.91979516761735   15.32473048706405   -2.03761818707817
N          -7.33086475415422   15.31709864884379   -2.04850567317720
O          -7.90991636639015   16.15423590356394   -2.71955006478218
O          -7.88628618739162   14.47067207846751   -1.37454483044292
C          -5.07296502342750   16.21854827757262   -2.67192812154123
C          -5.42204834328414   17.27138742231046   -3.54797260537064
C          -4.64796520132743   17.71521753840969   -4.57690841192729
C          -5.00667473217669   18.79713859533332   -5.42605900150031
C          -5.67722083231993   19.91851716050567   -5.03508252782484
C          -6.17127864515993   20.98224218910169   -5.89170377569483
C          -6.32425956050951   20.91625974235420   -7.25200147911488
C          -6.83975799107858   21.96763644809219   -8.03993652886705
N          -7.24713182192535   22.78676400504835   -8.73263744913607
C          -6.00825283923257   19.79364156601621   -8.04674222540602
N          -5.77897714624239   18.91702532104064   -8.75141334405039
C          -6.55562688650940   22.10072473606239   -5.04146653690497
C          -6.33349385697475   21.73616930777074   -3.68164108136577
C          -5.79966447388857   20.37167994394696   -3.61469588929106
O          -5.45047269138098   19.77352749502007   -2.61895504440960
C          -6.61154139549665   22.58835237620231   -2.65009475839927
C          -7.13996060314126   23.86583273266801   -2.93661522414359
C          -7.36011994409518   24.24077862474907   -4.29458702059221
C          -7.05783799529889   23.33965525650776   -5.34123310665402
C          -7.88540057226719   25.51967598601360   -4.56883239181521
C          -8.18258185499537   26.38665742217390   -3.55224401954844
C          -7.96729031454644   26.01598573246842   -2.21625260831661
C          -7.45707027670456   24.78229896682251   -1.91457693207488
H           6.22513013145723    7.06365434152815    0.64333802766046
H           8.08818231377670    2.43864205303853    0.46491787547297
H           8.78376273374510    2.63361926622053    2.77664244607380
H           8.94362649636773    3.93452370058534    4.86128283816314
H           8.02341999634775    6.21608121124448    4.97688242534359
H           6.93724035107325    7.21870602647614    3.00638501282781
H           6.37257635726742    3.87341853857413   -4.74995875612530
H           5.62408964003378    8.71045572011123   -6.29513881137614
H           3.23892451285168    8.29037859412244   -5.20133864931126
H           3.78138281990215    3.61723430553515   -3.72237474660698
H           1.32183437596913    3.08763644032044   -2.87342759378749
H           2.24962772017004    8.32693006548253   -3.08663335274624
H          -0.35193931037901    7.68520804229302   -4.57131947218762
H          -2.32067799437535   14.04109864992325   -3.85194777804587
H           0.21115647333263   14.43553343710179   -2.16876074079145
H          -0.79748884005284   19.32853451684259   -2.28460938307326
H          -3.34687085157156   18.61365139292110   -2.50191279410507
H          -2.99443063684643   14.01635018904349   -1.17278777793872
H          -5.57195966762292   13.52968144810096   -0.77836101145586
H          -6.42506335264522   17.66158403629710   -3.43087496285244
H          -3.75565954542375   17.16539047018383   -4.84926480814397
H          -4.66965383690681   18.72328143412614   -6.45299895336708
H          -6.43614342365140   22.28674132349109   -1.62812392138790
H          -7.22994737527782   23.65605157539044   -6.35766780537241
H          -8.05129000165133   25.80049447233112   -5.59838593293891
H          -8.58616252815223   27.36336935984908   -3.77243983965643
H          -8.20771370398259   26.71268767600127   -1.42746313928890
H          -7.28943214654454   24.49112949288030   -0.88813985379354
