112
 SCF done       -205.090832285864          0.000494460797
C           5.87228427664717    5.14303138767960   -0.12298111768767
C           6.33317338465242    5.64669036644503    1.06573362341250
C           7.67702075006487    5.56190512745815    1.48721497802947
N           8.75221693704508    5.52877277593237    1.88833035762170
C           5.54638412612020    6.26755916162521    2.05871669488811
N           4.97604123040807    6.76179620141416    2.92504389579232
C           6.67290690454171    4.40274793171775   -1.08917857795174
C           5.80074976225422    3.86561251637866   -2.07720347486002
C           6.26394713179703    3.11048553536132   -3.11563698407785
C           7.65098668239254    2.86258292787071   -3.22103751213329
C           8.53235971940605    3.40744556205094   -2.24306716483458
C           8.02162454498179    4.17916396798061   -1.17436896604410
C           9.91540677665729    3.16242897070265   -2.36359204259451
C          10.40618620257185    2.41408143839747   -3.39864333183070
C           9.53735757490221    1.87639304563350   -4.35991794717707
C           8.18920286608453    2.09538236445699   -4.27273167630839
C           4.41375650452677    4.26799127173237   -1.78497645483938
O           3.42842889324668    3.92926174730125   -2.40676292076312
C           4.49970306541282    5.16696262342194   -0.60697098062103
C           3.54477284151379    6.00589155278449   -0.10717223069523
C           2.18119869906224    6.16999987611926   -0.43216037469908
S           1.36555213790508    7.52674927555976    0.33431495436233
C          -0.13721098877003    7.13936713152240   -0.42562701330990
C           0.00434509057568    5.99946753045861   -1.22324230619460
C           1.29889761542582    5.46269415373434   -1.22341414355837
C          -1.06448619131652    5.44192422310545   -1.94921560461084
N          -1.93099397193525    4.97620728899606   -2.53809861140010
C          -1.31756289595623    7.91231940891194   -0.25382604741013
C          -1.33626121831768    9.00264948017496    0.53689129493769
N          -2.38587262422679    9.86337409835187    0.72420566102680
C          -3.58489018748002    9.84374341238657    0.02317364606909
O          -3.96642601138812    8.96533709078574   -0.70303425727811
C          -4.31572915218751   11.15315232289419    0.31649300547486
C          -3.46680851251084   11.77502841931873    1.38020942125400
C          -2.30671620432571   11.00861390214020    1.52814151124194
C          -1.28654452204421   11.41487895471046    2.36461099941567
C          -1.42821267194070   12.61282965156028    3.06372730022798
C          -2.59335905293862   13.35663417663265    2.92786258836586
C          -3.62130453142242   12.94613053436497    2.08932703892726
C          -0.32359331011727   13.07029523484527    3.96467757660181
C          -4.26250329291802   12.01573193579810   -0.97656323171393
C          -2.79544502647106   12.32594552887852   -1.20079898250086
O          -1.88882265403661   11.54692401777039   -1.39934247707274
N          -2.60589968226621   13.67624605866798   -1.03438731079754
C          -3.81889331733143   14.32061077537277   -0.74314490183069
C          -4.84822242680234   13.37443296409994   -0.76719495557190
C          -6.14728082463119   13.76454391453769   -0.52179502961902
C          -6.39849476189851   15.09928310316139   -0.24005286615700
C          -5.36876292128057   16.03196735422205   -0.16646396498171
C          -5.66546927485782   17.45920316733839    0.17416618870053
C          -4.05600747846150   15.64091880148193   -0.42044534592494
C          -1.33337887482697   14.20134875390520   -1.04765333392325
S          -0.01025652681001   13.13211881294167   -0.70602912171814
C           1.10843848362226   14.45372403810302   -0.81428548570244
C           2.54291533530390   14.28874806581043   -0.55953437947933
O           3.28792036996904   15.22293646410446   -0.40522430726797
O           2.99803480877311   13.02687346792951   -0.49266027136254
C           0.47062437922979   15.64915205733751   -1.12264650213050
C          -0.92527557090274   15.48178130241481   -1.27365697978749
C           1.18556581336252   16.87816428111448   -1.32590250618989
C           0.77470138286081   18.12438822252146   -0.99436815280364
C           1.56337728646715   19.33260317486337   -1.21687742275803
C           2.52822125753761   19.48856103211762   -2.17101914487048
C           3.25309097501306   20.68396678248381   -2.36486268646490
N           3.86688344980388   21.63364437206514   -2.55978747115343
C           2.86366973856828   18.50796091212712   -3.13167946844347
N           3.14333865439784   17.78063577635576   -3.97394481763327
C           1.06241088910234   20.35866429759584   -0.31627816427689
C          -0.10486964705681   19.85989368083639    0.33097918253874
C          -0.37777123612552   18.48589881141973   -0.12066455971054
O          -1.33328472080203   17.80394706639528    0.18758060261793
C          -0.80484469703221   20.61286798087401    1.23068940467959
C          -0.35645980536399   21.91680932098972    1.53523517098041
C           0.81624605193836   22.41814212802657    0.89861658184938
C           1.51710716493699   21.61954926001368   -0.03314497738946
C           1.25828736654182   23.71844955599871    1.21702433464278
C           0.57645786195155   24.48817274969306    2.11963319022080
C          -0.57841924647020   23.99421296701084    2.74496863429792
C          -1.03537711450700   22.73669049737219    2.45840263668405
H           5.58066191291641    2.71059615917558   -3.85015086434904
H           8.71493336517365    4.58260475058614   -0.45362487561987
H          10.57988847185121    3.57747292053465   -1.61997187073088
H          11.46721189287916    2.23231103017947   -3.48241547752761
H           9.94172539784501    1.28843229664252   -5.17030774875890
H           7.51554719288742    1.68439798754061   -5.01041360325274
H           3.87707774899764    6.70001701376000    0.65664368883539
H           1.58375134141550    4.59133580936178   -1.78499537776007
H          -2.19213069388521    7.60202218504917   -0.80540131187803
H          -0.44125770739899    9.28265269075219    1.07692141846654
H          -5.35615899933521   10.97999972692784    0.59556598046907
H          -0.38424738302939   10.83676571691261    2.48901994798212
H          -2.70052879811271   14.27806828860275    3.47937384230023
H          -4.51835713289105   13.53805032450458    1.99376831907341
H          -0.48118826076742   14.09643585177323    4.28468033409991
H           0.63780708060300   13.00333881368669    3.45912741325783
H          -0.27733014376723   12.43707554589930    4.85035535069914
H          -4.69475783200324   11.44726317840546   -1.80279153761102
H          -6.95123827030767   13.04488963310318   -0.54029297864949
H          -7.41209152210325   15.41945270680170   -0.05099683867835
H          -6.37701998301844   17.52094594517801    0.99477192253050
H          -6.10565263725654   17.96329927909188   -0.68617072310739
H          -4.75564887921317   17.98506712835709    0.45023495545403
H          -3.25665893385420   16.35602716851631   -0.32264957066241
H           2.31672235131670   12.36538728895659   -0.67491193576244
H          -1.57822837831390   16.27210677909343   -1.58498498360312
H           2.18529240314876   16.75636529309833   -1.72421859787573
H          -1.68886494259270   20.21671758403123    1.70854059778697
H           2.40538924448940   22.02095740408443   -0.49475894851334
H           2.14692021984511   24.09452263195941    0.73199399921500
H           0.92336893067250   25.48246297660399    2.35730974416027
H          -1.10341812637474   24.61503330297518    3.45536444891356
H          -1.92366276943199   22.35117849174544    2.93735336718159
