108
 SCF done       -199.635166483067          0.047424866104
C           2.17689216005799    2.97608961936573   -2.81943630397034
C           2.52700649016210    4.28036319821122   -3.04495462592984
C           2.58472978984518    4.86945739148667   -4.32478512612506
N           2.63174921505991    5.41869493781663   -5.33280092348522
C           2.96562325564549    5.17525205943304   -2.04676098654333
N           3.40951656767696    5.91422440661427   -1.28662286604888
C           2.01262485773961    1.96591271703456   -3.85763426788678
C           2.15091801673940    0.67684723426149   -3.26493299589382
C           2.09083969830988   -0.46473132844295   -4.01211510168602
C           1.90152644495138   -0.36436602202830   -5.40970670991157
C           1.72910028145999    0.92085830189153   -6.00139012644997
C           1.78398625033717    2.08514340882774   -5.20142344104993
C           1.52081983141232    1.00442553743425   -7.39300317066176
C           1.49229442863510   -0.12439502883196   -8.16710290243594
C           1.66492823429485   -1.38956452402110   -7.58459875476848
C           1.86191301633873   -1.50656159795529   -6.23534931388604
C           2.35843091306999    0.82844323611032   -1.81263819443073
O           2.54130262757277   -0.03578420733340   -0.98792282129402
C           2.12681589988917    2.28647014705070   -1.54605452223152
C           1.81032819071216    2.69066226368825   -0.28707607748815
C           1.25972431231796    3.93087999588657    0.12471493136338
O           0.77452423107147    4.81597485824933   -0.75467139744130
C           0.32917922299679    5.90214795939630   -0.08287160939928
C           0.49923181800390    5.70150333168104    1.27725258995897
C           1.10569859301534    4.44345990765009    1.42028610791408
C           1.50520352905322    3.79136332554526    2.67242202623697
O           1.99541790859825    2.70261929484019    2.75181777394088
O           1.18064313341159    4.53225999196987    3.73789485120519
C           1.49636275804335    3.96803761826013    5.00227833399375
C          -0.15479618202935    6.96527764480882   -0.89875109742698
N          -0.43305842553218    8.24767989431223   -0.50339154641691
C          -0.38612537273269    8.79695266897985    0.82817664282890
C          -1.66351131167352    8.47904103450337    1.60680389165990
C          -0.81008520577944    9.06359107840746   -1.60237268543250
O          -1.09657043069628   10.23413777795642   -1.48609889850166
C          -0.74115618833724    8.17511178632720   -2.73869742887752
C          -0.35841624392026    6.89058554730998   -2.27328739848824
C          -0.33504546023565    6.00114471147223   -3.41065446868911
O          -0.05125608417711    4.82441539628325   -3.52526682864727
N          -0.71178703966503    6.81067858321161   -4.49919850774176
C          -0.67968241268405    6.27939549305923   -5.84320065721711
C          -1.94042192016630    5.48541982631182   -6.17107757829730
C          -0.95359473577644    8.10656252751921   -4.11118352240511
C          -1.32750914008860    9.19730494429337   -4.94636084597679
C          -2.04381299640858    9.13680858169967   -6.09432918044734
C          -2.29403233786685   10.29895033857615   -6.87766973561745
O          -1.66044058894627   11.43301981476974   -6.57560533249625
C          -2.00906880007143   12.38275874564896   -7.46555415231591
C          -2.91502657932168   11.84718605861801   -8.37291118355246
C          -3.12015634477143   10.51175273043019   -7.99291058501919
C          -4.04339929338461    9.59435469434442   -8.67455784091650
O          -4.65766557403586    9.87495581250550   -9.67830869981893
O          -4.04787577448409    8.36235495718856   -8.12840192971694
C          -4.88227017955906    7.41017884888422   -8.77558050992898
C          -1.46256010137516   13.68948912322666   -7.45393218654639
C          -0.42390748299228   14.17704657833904   -6.71839463852603
C           0.10612313535314   15.52898494553433   -6.84086186717544
C          -0.50053284702357   16.59758510695459   -7.45231317911146
C           0.06711739380650   17.88775506778498   -7.52897217848365
N           0.45412398759959   18.96303173051112   -7.60789112950663
C          -1.77707751323522   16.59104735944814   -8.06056692336554
N          -2.77908867686950   16.66975802572814   -8.63801054526984
C           1.38017671995576   15.57726940083995   -6.13242204761497
C           1.59611838409391   14.32139817761190   -5.50074395307705
C           0.47175007517194   13.41635737086585   -5.79472949179495
O           0.34016962751217   12.29400151411788   -5.36819613000711
C           2.71476887571445   14.06361071622432   -4.76111155120472
C           3.69807871992188   15.06955931096740   -4.62729421196608
C           3.49516075267428   16.32961509152036   -5.26128453800115
C           2.32113960020311   16.56889397500641   -6.01271738453907
C           4.48571909732365   17.32452233555484   -5.12650097448898
C           5.62151309911132   17.08883669700640   -4.40079870851860
C           5.81651434132701   15.84997101364625   -3.77145253346588
C           4.87543857256834   14.86180739487811   -3.88197368389238
H           2.20800712846383   -1.43330820883406   -3.54644370764234
H           1.65151714222612    3.04855875147588   -5.66927544267019
H           1.39181638773159    1.98024701721433   -7.83622344060887
H           1.33222765214810   -0.04971963636198   -9.23155874611524
H           1.63535581286688   -2.27052600920205   -8.20935378970744
H           1.99195175508077   -2.47756087104748   -5.78118052475258
H           1.96212524621923    1.97262678971910    0.51262080876927
H           0.22996968383077    6.34905005876236    2.08305675207561
H           2.56819301642618    3.77391930122077    5.06645381947268
H           0.95852427479748    3.02844870760939    5.14533373846727
H           1.19554915595753    4.69980933323636    5.74731171446052
H          -0.29699970679373    9.88097142177721    0.70181601567335
H           0.50402476732470    8.42427894245250    1.34073589104639
H          -2.52035867147108    8.94123853253718    1.11119284239742
H          -1.58274083820671    8.88795262666942    2.61675540545595
H          -1.83186216802051    7.39907780671845    1.66825514052687
H           0.18423422607635    5.60936456204856   -5.90244512217246
H          -0.53556226323902    7.10177538189865   -6.54691985476814
H          -2.01623393288280    4.63450886401976   -5.49758878673309
H          -1.89643305102872    5.12057422181896   -7.19576842560081
H          -2.82815502417457    6.10452588024701   -6.04895502135402
H          -1.01298514094332   10.16812228444619   -4.58155201831339
H          -2.48643730209750    8.22629453786137   -6.46151973260620
H          -3.38983931923538   12.35277507862958   -9.18893903290876
H          -4.78589175198636    6.48791289691170   -8.20709131006225
H          -4.56396555345080    7.26142887370179   -9.81099376154802
H          -5.91908831322471    7.75754789781063   -8.77276057567609
H          -1.92024908883329   14.33854678781294   -8.18884783997142
H           2.85079480516482   13.09988178341616   -4.29341358501449
H           2.20283253561630   17.53049291659759   -6.48633873122794
H           4.33109080202574   18.27591678055872   -5.61335044482887
H           6.37200073468058   17.86034292306374   -4.29876978722286
H           6.71973869500227   15.67994836148694   -3.20633854417895
H           5.01892548635391   13.90609693622205   -3.39979034206304
