105
 SCF done       -190.288277609106          0.000753130194
C           4.12274231062604    4.04396056942410    0.20624491998993
C           3.91019691487786    3.77804597513624    1.52963901499855
C           4.92319727351586    3.82923313804934    2.50892908331711
N           5.71536377219087    3.86261304504916    3.33884442388218
C           2.68303171952965    3.30503707911061    2.04186704969659
N           1.73789956878683    2.82811735907702    2.48492429569533
C           5.42117611549090    4.24131191119534   -0.42806629007432
C           5.28783706884276    3.99094498428268   -1.82623889520098
C           6.35715137253590    4.06096107625917   -2.67278913060614
C           7.62597573089839    4.40183147813618   -2.15362831059586
C           7.76207724055633    4.67120717886150   -0.76066571329901
C           6.63948572229762    4.58319011387763    0.09428841600181
C           9.03236569638544    5.02025464104235   -0.25848376331591
C          10.11699544615052    5.09705575884303   -1.08893534228535
C           9.98238264995397    4.82950136987184   -2.45968268652476
C           8.76375727347058    4.48892293788635   -2.98036445701089
C           3.87985935079045    3.69351705685461   -2.13929836854713
O           3.39542415329156    3.38462017058888   -3.20302766006244
C           3.14472108132606    3.92651062978884   -0.85992513714353
C           1.80810301420021    4.14309358795648   -0.88898775600913
C           1.01565667319192    4.74913533766212    0.11973164823835
S          -0.74844600497671    4.72092355186046    0.05506895992141
C          -0.68471816629129    5.70155446452785    1.51378947042843
N           0.54090985951741    5.96468701442666    1.88353415007078
N           1.45928401036398    5.44038032982062    1.12856329153204
C          -1.82169929310385    6.16689892386252    2.21825252418402
C          -3.08664797032932    5.93610755988560    1.80327662144776
N          -4.21558231618478    6.37881471970960    2.39374639625368
C          -4.28838119921340    7.23001587644356    3.56579501118768
C          -4.19557977319884    6.40938189213281    4.85015867721717
C          -4.45508525711100    7.26658275115751    6.08924184238393
N          -4.49607840221568    6.38537987518742    7.24127398425864
S          -6.15027430600946    5.99855696256459    7.49632362781941
N          -6.69365155243313    7.57356061254160    7.06845559581416
C          -5.83752262833611    8.02150479350913    5.98512458344527
C          -6.54127798928248    7.70813378381413    4.66467620566273
C          -5.63996926220937    7.99739490477467    3.46661975169746
N          -6.25224878120347    7.57528907345580    2.22365013534184
S          -5.79076272432788    5.97468782417588    1.89432518612187
C          -7.10275908924888    8.30037898265096    1.45513984009187
C          -7.60798783166741    9.51197435666574    1.75799653543041
C          -8.46139995639660   10.29393334848173    0.90323221689860
C          -8.88591337761999   11.54991607093395    1.34421203182748
C          -9.69387844136377   12.35916049971454    0.56639856667035
N         -10.00347087481115   13.65849546129954    1.10359029172380
O          -9.96484239154216   13.78289788761191    2.31072326502463
O         -10.26520727291737   14.55625440204886    0.33046163396988
C         -10.14278737572869   11.95283512813781   -0.70670969455730
C          -9.71195722339993   10.68568989146777   -1.13423768726957
C          -8.89996878082002    9.88724799459680   -0.36770370308821
C         -11.04428526301707   12.73272771097375   -1.51336446281295
C         -11.14693331793971   12.62113538076026   -2.85938693673636
C         -12.08090170478060   13.38482787724929   -3.60320091126693
C         -12.23098777619724   13.31289289971343   -4.95754683444391
C         -13.16669390659442   14.07023560283133   -5.77157012809909
C         -14.17948981534106   14.87782550151268   -5.32455710064422
C         -15.06007724654086   15.58307146648133   -6.17194422580201
N         -15.80711051034571   16.18448614684330   -6.80320827359727
C         -14.51959537206076   15.10071245284968   -3.97343762426662
N         -14.88065941017032   15.31475846590954   -2.90454770411134
C         -12.87347786553779   13.78148489167750   -7.17125751199672
C         -11.82746986135908   12.81703785121841   -7.22807004682199
C         -11.40701780633746   12.46657094658640   -5.86140564873505
O         -10.56213767990425   11.65001758516149   -5.55435963767243
C         -11.34695701457479   12.34059586126505   -8.41370132829359
C         -11.90039500233839   12.81672685857053   -9.62286599565103
C         -12.94467625946606   13.78473915553201   -9.57582632526335
C         -13.42093173610129   14.26008031109718   -8.33253193538720
C         -13.49164223916980   14.25216456283692  -10.78830058451792
C         -13.03149842135040   13.78611737560202  -11.98960177223513
C         -12.00257763248484   12.83342388044850  -12.03457414081661
C         -11.44879664780784   12.35942113324597  -10.87645235860947
H           6.23621290932786    3.86017002300818   -3.72698712797117
H           6.76650900295125    4.80024884567719    1.14344286497914
H           9.13185793317617    5.22223058104115    0.79785716373618
H          11.08587084592664    5.36404666488713   -0.69421169224738
H          10.84895102214183    4.89508726356543   -3.10047725375456
H           8.65344136967815    4.28201216790305   -4.03483527509942
H           1.30226356162178    3.90795323112391   -1.81862467934729
H          -1.59772611975778    6.73117520083412    3.10908795251670
H          -3.26538923339015    5.34961804594488    0.91148149274993
H          -3.45575129002055    7.93945987327324    3.51572066059964
H          -3.20401820188807    5.96358638627360    4.93179951555506
H          -4.91850743842826    5.59289810171562    4.82980246265375
H          -3.64025268179098    7.98723952600040    6.21016782260240
H          -4.08049063088880    6.79498767781030    8.07162628688913
H          -6.67782282873428    8.19622670281933    7.86985445260283
H          -5.68269306608438    9.10209337719171    6.06680584839568
H          -7.44842537358681    8.30922867361097    4.59700210506298
H          -6.84488134094799    6.66073856691263    4.66544988764655
H          -5.44818238864630    9.07332243669065    3.39762045983562
H          -7.35012103087400    7.80033603741355    0.53029966426008
H          -7.36287905850718    9.97189767832626    2.70394718759461
H          -8.57024633211036   11.92305307888845    2.30781340631929
H         -10.05427863319872   10.32151314636349   -2.08984346716716
H          -8.60366851492789    8.92611969827071   -0.75640213458015
H         -11.66755295288012   13.46059033723219   -1.01025943713150
H         -10.49846348141157   11.95942528905553   -3.41312427107666
H         -12.70036430351281   14.07069384220180   -3.03949817653516
H         -10.55357172623523   11.60794019932860   -8.42818297293674
H         -14.20960697585828   14.99536295601587   -8.33277383303776
H         -14.28394838900459   14.98521559097683  -10.74861996158786
H         -13.45810407752358   14.14898037795601  -12.91270652822851
H         -11.65134747398306   12.47709484923785  -12.99145189716052
H         -10.65631638813240   11.62580531785467  -10.90449369071400
