108
 SCF done       -207.493503559835          0.000913413208
C           1.88238072283799    4.83690915592764   -3.29673451333548
C           1.09900277338245    5.92747465640285   -3.03478806242036
C           1.31387908227781    6.82528116639429   -1.97142496435968
N           1.44654070168849    7.62053562404753   -1.15343839263907
C          -0.02284263646032    6.28568451380048   -3.80955512100735
N          -0.95181628353091    6.62680814621168   -4.39096711611181
C           2.95470340033891    4.33244412717533   -2.45420832728173
C           3.20837956677797    2.97378496870570   -2.80657088587788
C           4.17912819600368    2.24486748009985   -2.18213787396223
C           4.96595784906149    2.85945241581408   -1.18169660798543
C           4.73218342791692    4.22515788364725   -0.84336787007553
C           3.70338785641113    4.94782759368110   -1.48635212735827
C           5.54916453888183    4.83579886781779    0.12954674169756
C           6.54313229971119    4.12898704577770    0.74941149570708
C           6.76351889691126    2.78121793348236    0.42747130888336
C           5.99265153013698    2.15999041862823   -0.51773107384175
C           2.33075680285794    2.58309626281739   -3.92629605975191
O           2.22304376635968    1.50226970635585   -4.45168395061239
C           1.67952310768494    3.85916973291592   -4.35338022231748
C           1.22658590719473    3.99682776851492   -5.62592633246785
C           1.01149734430240    5.21045351975983   -6.33541118173476
C           0.01294675587064    5.48952692432817   -7.25680238246964
N          -0.97030424853030    4.59758742747448   -7.72601433989187
O          -1.70907154552314    4.99480412116897   -8.60799793946337
O          -1.01045951051396    3.47922005863631   -7.24333318704387
C           0.07899621897546    6.87181959820105   -7.63200107357351
C           1.07656487418051    7.46458142723189   -6.91894657905415
C           1.72789322561684    6.47204408418750   -6.12197486218236
C           2.87570300000564    6.61318335163558   -5.35596824702607
C           3.89343760250126    5.64258567573490   -5.17199845519753
C           4.85672458673545    6.16683272393835   -4.35811896415476
C           4.47288379986920    7.47999278672692   -3.94736657229292
N           5.27201009203492    8.19104447269164   -3.04621646009165
O           5.12921480949177    9.40091351476091   -2.92677310234849
O           6.09731933395271    7.54862907001655   -2.41280719969479
C           3.24111507173339    7.80144216446461   -4.54514736119381
C           2.28012256619682    8.78668068069750   -4.29316195923420
C           2.37579946751202    9.88684917274730   -3.47350035549969
C           1.29526321361112   10.72970530754148   -3.20709629052058
S          -0.32361706320590   10.41036323295608   -3.85115349056379
C          -0.91862609941192   11.82621557149525   -3.07637497860405
C           0.10748699235735   12.49847143024339   -2.35128193575806
C           1.34251181275812   11.88421868181806   -2.42003945726229
N          -0.45115291290220   13.60418200417476   -1.79420400014045
C          -1.78403101301206   13.65994727851072   -2.13316836765022
C          -2.09135549667482   12.54638638831726   -2.93589823248886
C          -2.59839877528238   14.73780107784683   -1.71890169470544
C          -3.93850222680053   14.82199210584343   -1.95254618576104
C          -4.80164630993778   15.88290836147663   -1.60419109881392
S          -6.49434322713514   15.53452594413580   -1.50266368724144
C          -6.88467238877052   17.14270271066829   -0.98267785901905
C          -5.71207160284434   17.94653490902359   -0.92992284949748
C          -4.53096082762456   17.23806878275903   -1.30224165630605
C          -3.31518837331940   17.92646417371929   -1.40767852057850
C          -3.25290237098557   19.26366259108555   -1.07658719337646
C          -2.01985932538440   19.94889865171312   -1.17920384105296
N          -1.00173389641256   20.46659419849860   -1.26706184307688
C          -4.41810449396177   19.95239471720242   -0.64080361383902
C          -4.31857514036769   21.32033969785303   -0.29099297784047
N          -4.23105040607274   22.42613593223896   -0.00755968781165
C          -5.63377239473775   19.30348374288844   -0.58564814333950
C          -8.15369530398436   17.63125497028523   -0.65846426247621
C          -9.37954809824313   17.01211527953399   -0.68062795080288
C         -10.64703964104412   17.62427673679731   -0.33054308872690
C         -10.86155038774888   18.91932639441213    0.07075720550498
C         -12.13004342783952   19.44650921979323    0.39308751374468
N         -13.12970718954387   19.93733050296564    0.67113188708773
C          -9.86609964874550   19.90638413398973    0.21821165636510
N          -9.10212460016595   20.75408459778543    0.35518533162907
C         -11.68096335584496   16.60596899931983   -0.48652547165425
C         -11.06667846056209   15.39670390538934   -0.92603715210209
C          -9.62331492087443   15.61698927529123   -1.06353376244011
O          -8.78685670196855   14.80360353158831   -1.42546484028689
C         -11.78745578876369   14.26055340214396   -1.15751994292981
C         -13.18594643881815   14.28099888084444   -0.95706291759679
C         -13.80929986717287   15.48573109069237   -0.52038695349388
C         -13.03511606787693   16.64662471462080   -0.28806400179225
C         -15.20493028085206   15.49601495339414   -0.32564924639479
C         -15.95117257094807   14.37051036205832   -0.55000952111698
C         -15.33642912399220   13.18488868920397   -0.97845155343167
C         -13.98271500610988   13.14085568451318   -1.17796596030677
H           4.35422525108296    1.21486596337497   -2.45523241165072
H           3.54674144268153    5.98089100494744   -1.21670987548139
H           5.38014752131822    5.87494144551414    0.36701857040557
H           7.16694728078086    4.60534619009879    1.49042740558444
H           7.55123132722711    2.23820337714519    0.92806794816441
H           6.16300935601991    1.12455728946412   -0.77412797144232
H           1.04149139173356    3.07383390639967   -6.16899247196924
H          -0.57408482465800    7.32460536063212   -8.35289205481090
H           1.41876223826015    8.47614956183410   -7.02725629089660
H           3.93385178199326    4.69535436830659   -5.67441047567355
H           5.77666089427365    5.70128757687533   -4.05688654998231
H           1.32393439863476    8.63139838999759   -4.77957225908775
H           3.31818223507916   10.13389005020606   -3.00368886650589
H           2.24705520052031   12.21979719663136   -1.94759368382847
H           0.02487807330670   14.27804552641183   -1.21754615670942
H          -3.04722030373229   12.31580585556921   -3.35851086177074
H          -2.09932309105578   15.51240433505865   -1.15413293381871
H          -4.43006379926724   13.96881913021460   -2.40075751399250
H          -2.43010369596469   17.43663809775108   -1.77920264396162
H          -6.50715310189785   19.86242511548373   -0.28480085405333
H          -8.15281216847540   18.66482951753619   -0.34353178126397
H         -11.29741460215468   13.35725408750513   -1.48935891404751
H         -13.53877728298389   17.54071176911889    0.04287004872802
H         -15.67402354645158   16.41119669697169    0.00439142221987
H         -17.01985371777470   14.38860349136296   -0.39818685921927
H         -15.94004362930427   12.30639201433382   -1.14996899690436
H         -13.50399037293117   12.23062362194636   -1.50808415409799
