111
 SCF done       -210.176874935524          0.000830139149
C           5.49861055305169    4.24956591028608    1.68621659379716
C           5.82502622175976    2.93035586641934    1.83789587889415
C           7.13222278726470    2.46241817714847    2.08907482491978
N           8.17521053095808    2.03367512593442    2.30097218935415
C           4.89487167409791    1.87783637557254    1.69813960963821
N           4.18141849168213    0.99289288263278    1.54058464119539
C           6.41881768425171    5.37718244824655    1.66192475933283
C           5.69909859471702    6.54983489059103    1.28466314438060
C           6.31480132626827    7.76338558136790    1.16241947018216
C           7.70008980705217    7.86248590161570    1.41863642586601
C           8.42421799558915    6.69661715552221    1.80445224000388
C           7.76180134692298    5.45349650644916    1.92184726923756
C           9.80516720308967    6.81014192455076    2.06392002927480
C          10.44236875166811    8.01564091719504    1.94733349629092
C           9.72901020431183    9.16229631281275    1.56675554765948
C           8.38729692682010    9.08747841137748    1.30759640592793
C           4.28087630022056    6.21903564349828    1.09730475226569
O           3.37283881817864    6.97150261456448    0.81311564519121
C           4.16898554104470    4.76687853830816    1.41225668551257
C           2.97322744198198    4.15478275400543    1.57932406841350
C           1.73375355555322    4.77171660280550    1.21337437885492
C           0.67336323383566    5.04310364887376    2.04950004976754
N           0.62891712850489    4.72047090093562    3.41825357241721
O           1.63355862909531    4.23033078925358    3.91155973087755
O          -0.40186994910351    4.94334316879772    4.02236752703998
C          -0.33001144621454    5.78942452116937    1.33355624830315
C           0.12768631067845    6.01686764803067    0.07716031041921
C           1.41005108712353    5.37915623425817   -0.08046851216425
C           2.14185650344018    5.19799476116564   -1.23336277566490
C           3.00628222596654    4.09733935152818   -1.51025327478698
C           3.38223065420724    4.16481312098417   -2.81520159858572
C           2.83179453716011    5.34961819098923   -3.41426938766620
N           3.12437788451417    5.64721130538692   -4.75343928704609
O           2.47092115149150    6.49852773478727   -5.34153211025951
O           4.02460278580307    5.01345184928188   -5.27862117782125
C           2.08878212339942    6.04231020898682   -2.45183675370299
C           1.58598791698752    7.35461605167006   -2.36764750656067
C           1.45046976916392    8.27073085528598   -3.37766236514839
C           1.02309651728556    9.55644252868967   -3.14940579873217
C           0.66279781182350   10.71454709273125   -3.00274053790990
C           0.28480395434447   12.02491863456807   -2.83196010449874
S          -0.27463495451737   12.62673678085739   -1.29120236670576
C          -0.44516324268906   14.22522354376563   -1.95706488600996
C          -0.08371880762326   14.26351487422719   -3.29854883012432
C           0.31513877273736   13.03255658114120   -3.79003545247249
C          -0.88306727531497   15.28509119167912   -1.19101645641854
C          -1.26425012473764   16.21354869178034   -0.50152564312426
C          -1.66724454953228   17.31642975680367    0.22933174071520
C          -2.32683560998020   17.33967864250228    1.43734278109275
C          -2.52645898711121   18.69633713845745    1.82479628156177
C          -1.92163398529894   19.52212807027208    0.75955389134125
C          -1.42726923234979   18.69022709539279   -0.19262891241513
C          -1.86238897641826   20.91907298690840    0.70263086218403
N          -1.78897233378849   22.06279494991191    0.62286788926456
C          -3.16885676809948   19.16816288573310    2.94619767709283
C          -3.32146504179277   20.52641684211120    3.34727642210637
C          -4.04845748296312   20.57801385259583    4.51702699925407
C          -4.38860029289622   19.20902851235649    4.88721287891923
C          -3.85900320459035   18.35896333921599    3.97136238336203
C          -3.97201578387567   16.96453026377301    3.99900344718584
N          -4.07639578551288   15.82145230466977    4.04735499849702
C          -4.44966034710870   21.71380112839683    5.26952119805841
C          -3.97653897117628   22.96970752771135    5.05422359292202
C          -4.35152671610103   24.13461112787317    5.77339948351026
C          -5.56629487700991   24.43126856882916    6.31914687972164
C          -5.86591072548176   25.64011002702893    7.06834429990436
C          -4.95949148103962   26.39139315665337    7.76846721409116
C          -5.29876297592300   27.53909914537321    8.51480256123624
N          -5.51944268977148   28.47970126344881    9.13436388243068
C          -3.58639491119368   26.08317782371599    7.87543604824710
N          -2.46727907375653   25.87263125124902    8.02152814915093
C          -7.30552375597849   25.84842725474680    7.02436075339661
C          -7.90150858947820   24.73022757019964    6.37354068852099
C          -6.85829084296269   23.76491846590953    5.98490808902609
O          -7.03221989585082   22.68378235207469    5.46708069659192
C          -9.25033309146557   24.64654481884888    6.17803510300569
C         -10.07803368341133   25.69903200224251    6.62916034164849
C          -9.48791937694485   26.82290232207328    7.27749434239265
C          -8.08846332830460   26.88048332345057    7.46904412151519
C         -10.32378977600944   27.86907910628689    7.71796113199551
C         -11.67773369579514   27.81034347591295    7.52810492643669
C         -12.25769015832789   26.70393169321527    6.88956588766491
C         -11.47520600586179   25.67031231712197    6.45074823753474
H           5.75038883034184    8.63804097678028    0.87463143629686
H           8.33325092540523    4.58948152064136    2.22258252180017
H          10.35044658908994    5.92476289569403    2.35555738273141
H          11.50030765559676    8.09237559080088    2.14790404041376
H          10.24782181523463   10.10515047551992    1.48044046640633
H           7.83275134772555    9.96697857142579    1.01484949765883
H           2.91056135710326    3.19359651625486    2.07636515891023
H          -1.26241156591772    6.09846409893287    1.76592711139959
H          -0.41996916815267    6.48438273470805   -0.71822355750267
H           3.21392346345817    3.29347003696953   -0.83030903641150
H           3.98687309610684    3.46247008686111   -3.35810287463987
H           1.32370037492175    7.67666694003038   -1.36841033861968
H           1.68045331326190    8.00915038558115   -4.40292465906929
H          -0.12505466307380   15.16828831095403   -3.87807482720367
H           0.63088353560329   12.85061368835692   -4.80157126713218
H          -2.64102875034752   16.48204919362074    1.99857396102942
H          -0.93095421575358   18.97047273741277   -1.10326755710514
H          -2.93117371063851   21.36287336791374    2.80298268533488
H          -4.96366040381104   18.93887676448940    5.75364911603623
H          -5.14065875212918   21.53216733996361    6.07919766278798
H          -3.18630071511493   23.10874582798748    4.32743825725819
H          -3.58578428797658   24.90145617711104    5.82521702157536
H          -9.68066027946316   23.78885394618256    5.68255175950025
H          -7.66793209706939   27.74731603340636    7.95409600246232
H          -9.87260437564166   28.71813941918023    8.21002056361239
H         -12.30949597066336   28.61677060225127    7.86890635654933
H         -13.32747990131218   26.67489802997212    6.74659423653655
H         -11.91635539672127   24.81606456599965    5.95837124070082
