106
 SCF done       -192.499673837846          0.000669061831
C           2.25136244095098    2.08840791509344   -1.88322414384989
C           2.41608935576414    3.06595504464630   -0.94042504148219
C           3.67321400523765    3.44918936246265   -0.42640965353245
N           4.67052698417708    3.78653467785896    0.02956346984448
C           1.35249989205524    3.73629896750098   -0.30226895616881
N           0.52630928208606    4.28177101482205    0.27881310110365
C           3.31098155371314    1.23184558377357   -2.40152636413682
C           2.72162758374171    0.04742511664440   -2.93426613787351
C           3.48248652996806   -0.95497613438094   -3.46459802285723
C           4.88737227260294   -0.80941003465260   -3.49837588785828
C           5.48026700958680    0.38123072454373   -2.98577871031027
C           4.66937243856064    1.39955641866579   -2.43510122532687
C           6.88248336050833    0.51796936039013   -3.03668090117142
C           7.66366988173857   -0.47346767514436   -3.56465846392868
C           7.07952593199929   -1.64596799780057   -4.06731278903754
C           5.72146338502058   -1.81051803106472   -4.03451517616290
C           1.25653536220839    0.14122707744948   -2.82640273928399
O           0.42614827623119   -0.69064229327878   -3.10858781327684
C           0.98926147446490    1.53312251347084   -2.34632433742113
C          -0.24532854670428    2.06086896700582   -2.49825793513145
C          -0.63433706186488    3.44717137046364   -2.44139821873080
C           0.23576160497730    4.46362947404493   -2.82014554618630
C          -0.14618325390986    5.79447204559517   -2.76904243396003
N           0.82147982151184    6.74220204224814   -3.24278075394643
O           1.98089425708650    6.37799705924147   -3.28718159743666
O           0.44549039614210    7.84359625260374   -3.59493705441935
C          -1.42539115967073    6.17830559709518   -2.30864745760559
C          -2.29869288893295    5.13129793375819   -1.96701334549548
C          -1.93100988976920    3.81248904900837   -2.04705306431345
C          -1.80171288553661    7.55614959805622   -2.13907346196821
C          -3.07066503740774    8.01284244314451   -2.19677062395940
C          -3.50058421599458    9.36804163114411   -2.06529636545580
C          -2.78282504210988   10.56544055217295   -2.13457998152026
C          -1.34061524743770   10.71812556353902   -2.45084553176234
C          -3.66379641335156   11.68357792884915   -1.92940171782620
C          -4.94066779719708   11.15869564540617   -1.76439094304717
C          -4.87536596526809    9.71053710083997   -1.85059904992804
C          -6.03452235268128    8.99640812100888   -1.70269113151904
C          -7.23016228765384    9.71327259738374   -1.48656623713657
C          -7.20054063505494   11.07521283755942   -1.41417327142463
O          -6.09416855885367   11.79630073429972   -1.54237236877789
C          -3.27161820315945   13.05795385197228   -1.87439417382764
C          -4.12155030602138   14.10147757618166   -1.79332652725068
C          -3.74687626436334   15.49011151019122   -1.71416409659560
C          -4.74163137437010   16.46525595767947   -1.82116264893068
C          -4.44472849284901   17.81432382219164   -1.75204759271890
N          -5.55838746994686   18.72346503001717   -1.81021076334171
O          -6.57106183162919   18.32862412789323   -2.35128969585436
O          -5.43535215904278   19.82093448453249   -1.30593052174296
C          -3.12383557641587   18.27234371346699   -1.57164201708201
C          -2.13657980846712   17.28138885840782   -1.45031304429802
C          -2.43178437207280   15.94159362166075   -1.51605350035067
C          -2.76665224434351   19.66760511834854   -1.57230637435788
C          -1.69094515480724   20.17459857175968   -0.92528344809443
C          -1.37388091587768   21.55549889495308   -0.97919167550973
C          -0.33815019058996   22.13798977359248   -0.30998105474634
C           0.01120211758265   23.54830501356742   -0.31045893131330
C          -0.46211633599367   24.50990915705482   -1.16381418568722
C          -0.07155907219895   25.86487905715778   -1.12075165345026
N           0.20325491297697   26.97951429981178   -1.13869734007706
C          -1.36043428800885   24.28688926884879   -2.22882385656170
N          -2.06714846820957   24.18695057452336   -3.12822375278500
C           1.01637936284075   23.75644534797076    0.72559056213608
C           1.36596747134474   22.49240343154002    1.28063295270834
C           0.57248481421390   21.43422469245757    0.63230861754339
O           0.65424636978069   20.24076674001222    0.83826859479937
C           2.29850555578949   22.37174812027953    2.27023188944504
C           2.93042394553857   23.53339803644364    2.76708758435062
C           2.57873149469421   24.80311124173947    2.22478625076059
C           1.61392671599276   24.89607392932613    1.19570986165555
C           3.20985676493091   25.95668267198568    2.73333336946919
C           4.14414769338509   25.86254429051232    3.72846066527321
C           4.49084636394269   24.61159702256438    4.26054406597568
C           3.89719693927520   23.47195721435942    3.78988698442367
H           3.01821949985664   -1.84739484118688   -3.85729667965814
H           5.14056658823914    2.29715215449153   -2.06598845197866
H           7.32729846328188    1.42122233374981   -2.64592782754070
H           8.73682380029813   -0.35996845068222   -3.59792427559753
H           7.71108123652875   -2.41769778223355   -4.48129101621146
H           5.26623424219404   -2.71082256469397   -4.42060443062724
H          -1.02734396268121    1.35099597558134   -2.74928827577436
H           1.21801837827718    4.23050538691004   -3.20519025618591
H          -3.28017096079421    5.38102667288462   -1.59626894750925
H          -2.62884598657657    3.03939892713331   -1.76198615858998
H          -0.99926107734557    8.25272688508353   -1.97143809248845
H          -3.87061263927235    7.30713415872619   -2.38381985051352
H          -1.01675688775021    9.96091302402620   -3.16152676998561
H          -0.73656109607016   10.61568567821187   -1.54803578481760
H          -1.14116711168813   11.69686841686863   -2.87943082794860
H          -6.05668960980313    7.91873156941055   -1.74744118116142
H          -8.16697627423613    9.19561375054613   -1.37313124506978
H          -8.07596588958499   11.68441635225631   -1.24577138999942
H          -2.20718813023322   13.23923808128650   -1.89777139784853
H          -5.18553474905884   13.91545324167716   -1.80876889468787
H          -5.77450515178602   16.17564135742700   -1.95077078161267
H          -1.11054259671332   17.59070852667169   -1.32746732206726
H          -1.63140345194584   15.22687937665686   -1.40715009243851
H          -3.40978163633419   20.35016845844332   -2.11280912953793
H          -1.06079382762400   19.54408091001493   -0.31623533828690
H          -2.02677084441659   22.17605596801264   -1.58006126079305
H           2.54843109178556   21.40087996898842    2.67190951802393
H           1.36721396570974   25.87207177795058    0.80909342237044
H           2.94051747433772   26.91734937913850    2.31948253569367
H           4.62165658013464   26.75200517735043    4.11144546610136
H           5.23021056187124   24.55569598471248    5.04551300671088
H           4.15974814677857   22.50597296664913    4.19597507082417
