93
 SCF done       -174.512472714665          0.000743677444
C          -5.01743573516181    1.39690407165627   -5.02807602613167
C          -6.02487252861412    2.31900755181959   -4.99007230122484
C          -6.37284192079109    3.14031982849484   -6.08281208155916
N          -6.68396516143182    3.83445834780490   -6.94201211246445
C          -6.91123755304487    2.46955841151225   -3.90214755583756
N          -7.71252381427201    2.57143070750238   -3.08685893278651
C          -4.27277996587401    0.99635016200636   -6.21645273625072
C          -3.69895519318593   -0.28920904907434   -5.98414538368043
C          -2.97927629500436   -0.93860713865084   -6.94628892390923
C          -2.78705135967640   -0.31698962424374   -8.19995987502536
C          -3.34026963775453    0.97621685285441   -8.43129119083745
C          -4.08767761799256    1.62214778318004   -7.42000847825959
C          -3.13147326723838    1.58897034745181   -9.68370009648744
C          -2.41515303616832    0.95568683185364  -10.66240798669341
C          -1.87345408821463   -0.31843625701044  -10.43464940498633
C          -2.05558501184562   -0.94116437832676   -9.22996032247971
C          -3.99874623662958   -0.71903450951957   -4.60897389169960
O          -3.72773628791885   -1.76616354668661   -4.07042702186791
C          -4.66764913231825    0.45948841923720   -3.97540313453320
C          -4.70696588233560    0.55400343951014   -2.62614908517408
C          -4.96146433169117    1.71849062151106   -1.85413963817138
S          -5.31979651176427    1.63104794959001   -0.13388488581655
C          -5.39647450690209    3.38451014375236   -0.19588275071218
N          -5.14126895801488    3.85442180282062   -1.38960617761125
N          -4.91098301052179    2.94770127147401   -2.28732641634005
C          -5.73143553890235    4.16665595220600    0.93680074963027
C          -5.88829509434963    5.51137851824092    0.86233318777926
C          -6.22149470439706    6.33229807834197    1.96668921022219
S          -6.07452804471975    5.68394600792210    3.57019748106829
C          -6.49624308209390    7.17391886359932    4.31604649849464
C          -6.73040631875420    8.16732635678924    3.36178931902075
C          -6.60917331150257    7.68137665526995    2.01460598611093
C          -6.89852907008620    8.58363497416510    0.95908791985536
S          -6.96795713940431    8.12927455366654   -0.75572633297269
C          -7.12998991195624    9.90701693961739    1.24389650662003
C          -7.12471775542472   10.38983772721035    2.56067347657607
C          -6.95874281039026    9.53683815022839    3.61310063330592
C          -6.57127723734725    7.24806600468848    5.75619386328829
C          -5.68367817121425    6.51060563753183    6.53811852741516
C          -5.75306781014807    6.54640795181648    7.91950363827759
N          -4.82795301574102    5.70707144290593    8.63902510239941
O          -3.81722401445440    5.37223873614728    8.05967105781997
O          -5.11776822547009    5.37275590799162    9.76862536592276
C          -6.72021988325802    7.31639440109353    8.59083595701386
C          -7.62044840162750    8.03076589113070    7.78849548149326
C          -7.55440272695544    8.00111947930949    6.41461952622961
C          -6.78973627005240    7.40746649163566   10.03160905444764
C          -7.95045297624735    7.50881337607605   10.71387833228513
C          -7.97848666892914    7.56290526746757   12.13419859310886
C          -9.11519555599589    7.54564747404559   12.88175197154145
C          -9.19818013612327    7.52574762716616   14.33412628264850
C          -8.19817143995671    7.84715023765698   15.21186770208983
C          -8.34483659476979    7.82536548644168   16.61528661402856
N          -8.40379036407841    7.82398759334848   17.76156140955887
C          -6.91068300741918    8.29327758277561   14.84373101449514
N          -5.85604574309793    8.68709547566221   14.61902788928062
C         -10.56513258894515    7.16925326531714   14.69237265165229
C         -11.34741347985924    7.11237974704187   13.50291918529109
C         -10.49461924111128    7.39879412070512   12.33789766863246
O         -10.84990269300170    7.48754060107476   11.18127384418158
C         -12.67859171044658    6.80981918553389   13.52935420914343
C         -13.29721019985001    6.53061460765991   14.76805505778564
C         -12.51823396344265    6.57059951026165   15.96092735798142
C         -11.14433161124763    6.89777635282257   15.90404970717919
C         -13.14345213653681    6.27676459746894   17.18999436434691
C         -14.47361418649000    5.96023625611097   17.24052297031674
C         -15.24021394586295    5.92429403204915   16.06586303814703
C         -14.66478352234844    6.20406417039651   14.85616460480276
H          -2.56033941952211   -1.91486287649302   -6.75246657755461
H          -4.48802038671475    2.60442152984570   -7.61663026044674
H          -3.55312690292829    2.56828678380949   -9.85558486017527
H          -2.26210727241769    1.43289401442627  -11.61871673929660
H          -1.31079004078589   -0.80338867178994  -11.21820153874328
H          -1.64074883397633   -1.92180251171577   -9.04831122917438
H          -4.44481855203551   -0.34075299744487   -2.07279413864489
H          -5.89250017233125    3.63715278314183    1.86554032752126
H          -5.71879455124662    5.98099183524470   -0.09530860291449
H          -7.56365768600257    6.94924989954959   -0.58755591729460
H          -7.32549471368493   10.58587935182847    0.42835565235362
H          -7.28233501590475   11.44329552034142    2.73153763392072
H          -6.96699340388476    9.89857595452579    4.62841880442129
H          -4.92556053274656    5.89596997615720    6.07437661600076
H          -8.37629591537572    8.63031469180661    8.27118863621265
H          -8.29079485665084    8.53494311812376    5.83453781416457
H          -5.86051757740289    7.36067830172280   10.58442550177267
H          -8.89884824669834    7.49191491171860   10.19736579254183
H          -7.01775216851219    7.57148826797573   12.63363920802664
H         -13.25123559218734    6.77739554886208   12.61419432346040
H         -10.58050939786913    6.91557395521815   16.82333450848204
H         -12.54961507233925    6.30723727598171   18.09172045227248
H         -14.94292781577799    5.73540902339104   18.18649740894502
H         -16.28861992947118    5.67295507023420   16.12435082008525
H         -15.24956859246560    6.17699791605663   13.94826609837100
