118
 SCF done       -232.660337584495          0.000548693877
C           3.24643862162245    7.55683587989337    1.05940449266504
C           2.10640590525101    8.27579055325064    0.82092189401085
C           1.38360002757642    8.24057721285652   -0.38717020448048
N           0.75887671975975    8.28151142132479   -1.35015455001414
C           1.52315886651926    9.13511343259183    1.77320811077875
N           1.00989754805342    9.85873095053105    2.50192751212874
C           3.85342441587447    6.58099286464059    0.17170364007839
C           4.71582458573446    5.74417593416795    0.94038452786765
C           5.46391831750807    4.76571306094424    0.35080215588699
C           5.40017342523765    4.59980462185224   -1.05158525198529
C           4.54966606794819    5.44521355958317   -1.82459629849763
C           3.76411150180108    6.43014887922457   -1.18578847292327
C           4.52516728158851    5.29160374509792   -3.22491671201752
C           5.30132234237384    4.34539361820044   -3.83676558829991
C           6.12959608604481    3.50695199897960   -3.07637580154621
C           6.17650861788723    3.62910118799852   -1.71366528334620
C           4.69104929346856    6.17324689467896    2.35173967634595
O           5.21707261529106    5.65925497641703    3.30626148879636
C           3.96100448902667    7.48191738099414    2.31966077593249
C           4.20569236116408    8.44307973662921    3.25030220361564
C           4.07688727375571    9.84052795376833    3.03190330388534
C           3.66317728800138   10.83575077938566    3.90001327502615
N           3.31298812722668   10.66802571788145    5.25569175149877
O           3.01537141265604   11.66517782930200    5.88367237703841
O           3.35370417773526    9.54155318638025    5.71652360590995
C           3.56821216028068   12.07831240147314    3.18955257245833
C           3.88051901936610   11.85743688050176    1.88018686792627
C           4.26078590203651   10.49005794233499    1.72384421588190
C           4.87055836597727    9.87439015295972    0.63823051126317
C           5.93972871985699    8.93799288230006    0.74409550345247
C           6.36741150468400    8.60046692729787   -0.50792713033066
C           5.54228657839413    9.25523494778934   -1.46720077529675
N           5.63896359469015    8.98349182846727   -2.83940597114803
O           6.41262855743804    8.10147033560828   -3.17712657303842
O           4.94421085972055    9.61496157526369   -3.62186377016535
C           4.60462688736024   10.06341928223345   -0.80120557352493
C           3.48481268778739   10.66176916980266   -1.39443175137833
C           2.36181682252204   11.10816198935918   -0.74480103849893
C           1.20215489019621   11.54792145911064   -1.39215449704055
C          -0.01747930833365   11.81333417868904   -0.77072224115616
C          -1.01881997064542   12.15426924580298   -1.66494285167859
C          -0.55621051872216   12.19678483895789   -3.00395919983193
S           1.10358701639842   11.75965333249042   -3.12564516426053
C          -1.43284998089358   12.63348666041120   -4.00171034349201
C          -2.77961883748616   12.86146992620401   -3.67260295939854
C          -3.27765894223887   12.53302590966693   -2.30145120306429
O          -2.26462322647005   12.47093934569992   -1.30161725771020
C          -3.51790819184638   13.34854824680574   -4.73064645507517
C          -2.77713354403805   13.50122338394226   -5.90399241223784
S          -1.10243194840516   13.01824033961779   -5.64686697025398
C          -3.15345237417094   14.04976087191697   -7.14667631454389
C          -4.09263589962259   15.03949313968185   -7.45738063529590
N          -5.11430980018444   15.61666756733332   -6.68369087800225
O          -5.54481629563376   15.01484066131279   -5.71135666082077
O          -5.53417772059424   16.70031591540626   -7.04835034743747
C          -3.82949470234087   15.53094238814864   -8.77761972969545
C          -2.76116899083471   14.87237190963654   -9.30409935960491
C          -2.33596104607898   13.88267373293148   -8.36853121808869
C          -1.51679319986275   12.80885675380428   -8.65600002367987
C          -1.65074922218240   11.47652961625433   -8.14834243480306
C          -0.85605748539007   10.65603228728164   -8.88364075460477
C          -0.14014960474454   11.43459731634633   -9.85705378726073
N           0.78213752306426   10.79937210789132  -10.71666604812339
O           1.17853645918448    9.70039409043848  -10.37713867216146
O           1.10748752456922   11.35268472421611  -11.75255389183206
C          -0.50130930886854   12.77452780133392   -9.73187199997651
C           0.05075522207635   13.98920409522426  -10.20604223611849
C           0.85760219543235   14.19246639412783  -11.28839137216399
C           1.40796135513103   15.42953151976732  -11.71195802583045
C           1.18704234482013   16.73054610754635  -11.34081337614979
C           1.84390689826134   17.85307898044793  -12.00613512969264
C           3.01320492135609   17.81194106280150  -12.71754356679927
C           3.60274024478875   18.94492126330420  -13.31970441756618
N           4.12556011966933   19.82587733971338  -13.83683646454012
C           3.83068023598026   16.67508195231921  -12.90451319400439
N           4.57304103136860   15.81675333239069  -13.07728473076176
C           1.08741927351639   19.06144645780283  -11.70654229403071
C           0.09279150558120   18.73444447768027  -10.74295561834703
C           0.17834718800091   17.30726375252267  -10.40741500265857
O          -0.44914816857547   16.75475265292688   -9.52528034094273
C          -0.77153950650938   19.66898910693909  -10.24696267451399
C          -0.68386131332070   20.99927638502561  -10.71176299119362
C           0.30303370869011   21.33389916982238  -11.68473772609675
C           1.18791202417052   20.34523525674804  -12.17358393268026
C           0.37900304952065   22.66451237377355  -12.14369262344024
C          -0.47613344851114   23.61985371026173  -11.66503010921059
C          -1.44674253440125   23.28931620488570  -10.70727394484643
C          -1.54868647223280   22.00688272143125  -10.24053270001201
H           6.11082553666243    4.13561571462120    0.94284190657875
H           3.13135669410363    7.06717365357811   -1.78608790825906
H           3.88750544800303    5.94022472053473   -3.80664436382972
H           5.28342550324551    4.24153516851529   -4.91069426359501
H           6.73582195694663    2.76623380146520   -3.57565945875121
H           6.81683006119929    2.98894304901715   -1.12470468701888
H           4.59160588414710    8.11892250265649    4.21210043335532
H           3.28772834977124   13.00631869342870    3.64987332287928
H           3.96535811008707   12.59905527446732    1.10868004417628
H           6.39773496572392    8.64475027810932    1.66910979859927
H           7.18385774281714    7.95270995061519   -0.76530466604106
H           3.47903842298703   10.66646520264862   -2.47898493653929
H           2.29564180792853   11.06635178013051    0.33273313251279
H          -0.16400572315482   11.73245140705103    0.29053209118225
H          -3.79308140483055   11.55861744594665   -2.32510983103667
H          -3.99314516552007   13.28491985879975   -1.95563526878000
H          -4.56493036606181   13.58409674591228   -4.68073346033390
H          -4.42174247706119   16.29453654859438   -9.24564782034654
H          -2.38527774037046   14.97486373292457  -10.30207280062998
H          -2.36491926557916   11.17080882650295   -7.40834171838175
H          -0.75765653105108    9.59023486579854   -8.79867173809807
H          -0.21709656830681   14.85230117021156   -9.61182169408272
H           1.12781044056580   13.34776026532469  -11.90723367610261
H           2.10690481958354   15.30780127935550  -12.53235114896819
H          -1.51389793644799   19.39455326599713   -9.51208479072182
H           1.91916348992621   20.63020575700431  -12.91294427354113
H           1.12853519169329   22.91517133543099  -12.87976174351243
H          -0.40902328318571   24.63641495289686  -12.02214655230630
H          -2.11319521471122   24.05576703215838  -10.34139781959898
H          -2.29371494944889   21.74602395614831   -9.50334904067275
