96
 SCF done       -173.758674279257          0.000509635844
C           2.73376513081996    0.75513145956814    0.05020191179676
N           1.83090679000719   -0.16678146051654    0.17630824136262
C           1.29912558573264    0.00838367011124    1.42722594251237
C           1.94130879121013    1.13876882253837    2.10480018545253
C           1.37893264785447    1.33153030462597    3.45035137639316
O           1.66855686174102    2.16340474355546    4.27867362725991
C           0.37197005272888    0.24785766109251    3.52861896806331
C           0.36382676473379   -0.53180576412609    2.26363926652335
N          -0.55533862221523   -1.53155626676833    2.32817877248276
C          -1.09614657445158   -1.42436170371319    3.51092220638846
C          -0.56252182236738   -0.33228469378033    4.31582473425665
C           2.87652345483777    1.63135007932419    1.22514871874826
C           3.76958514552151    2.71789466022575    1.41342425383695
C           4.68114626947366    3.13100156930897    0.49900540663157
C           5.58845117810875    4.20453207118513    0.69514991902772
S           6.73103730829490    4.59619133842394   -0.56026287801262
C           7.42903309712728    5.88155323950784    0.38367861110612
C           6.77057166098490    5.98002343223452    1.61724783864055
C           5.74592081983507    5.04301064216767    1.78398251506208
C           7.10650221321488    6.93010750579167    2.60114110272693
N           7.34928802284472    7.68858257769468    3.42481579307361
C           8.51073433871143    6.66401200425701   -0.06069893361385
C           9.10117098141840    6.50485564055620   -1.28130632728349
C          10.20957653263274    7.26359072819155   -1.70395154332732
N          10.82680107658415    7.11550142892205   -2.92275118846318
C          10.48951418690326    6.16086353576538   -3.95111537109191
C          11.01956489553023    4.76593408005797   -3.62814933054847
C          11.92785033436491    7.98462196368679   -3.06848915216548
O          12.62427741356526    8.03222623414049   -4.05810496873487
C          11.95493045780533    8.72388845718705   -1.82329637949559
C          10.89984503195272    8.27136134481013   -1.01465950541224
C          10.94591514707031    9.02256854029292    0.22243174390160
O          10.23896164407667    8.99889668834977    1.20771477643132
N          12.05138122008516    9.88399232719280    0.07646880943474
C          12.39157639433282   10.78395062405036    1.15404618447663
C          13.45984972912273   10.19412002620003    2.07193322561066
C          12.67674737990558    9.71161423366082   -1.13642042115342
C          13.81821514583204   10.32771172304245   -1.68760787380946
C          14.70952431732441   11.18952834390343   -1.11481604285765
C          15.84587266167020   11.70176286898163   -1.77621165326214
C          16.81407589079786   12.49817310512323   -1.18980443141071
C          17.81950045932973   12.80097858591929   -2.14290939901358
C          17.40135444388342   12.13934692533016   -3.39742513675159
C          16.23516895705199   11.48646032521181   -3.16691741749649
C          18.08112172703631   12.14830546163869   -4.62271909365626
N          18.60692380642878   12.11677593201512   -5.64263877507604
C          18.96857016350557   13.53701502303232   -1.94521507319675
C          19.98172567460689   13.85173699596151   -2.89668643083253
C          20.98737615981079   14.55750022759157   -2.26731831868762
C          20.60854460784726   14.73817105863765   -0.87687386684996
C          19.40044554463072   14.14434561652294   -0.67534501079683
C          18.71221707168595   14.13344318393988    0.54201500982106
N          18.17313766120473   14.13801661565563    1.55701938261258
C          22.16086705360328   15.04962554388698   -2.90439750254696
N          22.15265169490253   15.29976674371037   -4.20691248282539
C          23.35644141586355   15.82546161542582   -4.48912841066004
C          24.20245000213373   15.90665755601844   -3.27927255385865
C          25.51842922125670   16.47961198610587   -3.61279982169179
O          26.45247325732152   16.71553178072158   -2.87773341494693
C          25.41141684751434   16.70924799819275   -5.06496192388414
C          24.07541752698835   16.30500547662975   -5.55516176721376
N          23.97828729298373   16.50208799379609   -6.89306646486037
C          25.14254193809103   16.98123588725687   -7.25392213587343
C          26.08807145700399   17.12853540372318   -6.16400817758092
C          23.45907311666412   15.37782098079457   -2.26164350401946
C          23.82440835289443   15.07921051600468   -0.90195660441981
C          24.93363931861789   15.53629558004685   -0.32197162965647
H           3.30232313977952    0.82851252077225   -0.86054101473563
H          -1.86779771250795   -2.10753323444345    3.82132224738595
H          -0.87576408451202   -0.08348948900615    5.31040585520893
H           3.68915255578688    3.21816406445020    2.36860087944254
H           4.75472348918763    2.62298052043211   -0.45291152048483
H           5.14534871056870    4.98417621444741    2.67358987112534
H           8.87921501388822    7.41627732652576    0.62726747531905
H           8.70878612438858    5.75649762109301   -1.95725763417104
H          10.95931906511079    6.52665347505525   -4.86834114607937
H           9.40539780295944    6.14427468401927   -4.09276834982248
H          12.10241460832662    4.79316195426674   -3.53596300560969
H          10.75705039058662    4.07952462895169   -4.42809074877733
H          10.60204292744105    4.39342888746971   -2.69524177403988
H          11.47071414659707   10.92839698603972    1.72730990166912
H          12.69825864094416   11.74636035222503    0.73899264545048
H          13.07378647454102    9.30032347690105    2.55555831181901
H          13.72420133229333   10.91605561580178    2.83943111972582
H          14.35645891435714    9.92507763187376    1.51751213737191
H          13.99638857149865   10.01086785988834   -2.70736034363438
H          14.60272652657422   11.50299427155918   -0.08766804110848
H          16.81313664301855   12.83248280547783   -0.17088670314809
H          15.68520506344851   10.90947510844394   -3.88632991773858
H          19.98557964385433   13.56729619757441   -3.93014998571870
H          21.15871839251196   15.30347612131332   -0.14812743523468
H          25.33092588864579   17.23231361078920   -8.28349401504214
H          27.09102683605120   17.49649337042037   -6.25324255415769
H          23.15838694071131   14.41906816587683   -0.36229297306251
H          25.62100332434126   16.18023650325555   -0.84446732076620
H          25.18433630112455   15.27150394814502    0.69111643208008
