122
 SCF done       -240.107312074745          0.000617307652
C           7.26628678288028   -4.84698543218524   11.75260154952417
C           6.21049762195204   -5.25589433854703   12.51924092066693
F           6.33093610799020   -5.27158407632704   13.85778243911812
C           4.99022667960012   -5.66357515396213   11.96212101753790
C           4.84691272599749   -5.65235572287427   10.60272971848283
C           5.90264237692094   -5.23881430521516    9.76415544865402
C           7.13614981697422   -4.82679641139226   10.35031611392203
C           8.20713028775696   -4.40159168358537    9.53081586995659
C           8.04554173083698   -4.38957827604678    8.17184685795271
C           6.81596375375270   -4.81806375529806    7.58954567622862
C           5.76561514793131   -5.23087676852997    8.35836188471687
C           6.92345578820039   -4.76027452194991    6.12246364037194
O           6.07301771986727   -4.97280245957482    5.29105974098939
C           8.35756470070842   -4.43423603325162    5.85770948592533
C           8.95423757384683   -3.99680353892048    7.10428121088732
C          10.03319358206549   -3.16287458721655    7.23491879312854
C          10.49741176573568   -2.66744800877818    8.47203257910488
N          10.91373899605128   -2.22984955877208    9.44728382043955
C          10.75670523532145   -2.64449588145875    6.14714283479201
N          11.35847766142944   -2.15723718079043    5.29764693616128
C           8.88240721141603   -4.70460025203148    4.63909887761985
C          10.24656936267372   -4.83258949173809    4.24729214722409
C          11.33899499251080   -5.32420782115788    4.96408646184067
N          11.36567249204780   -5.96625060063471    6.21145672605038
O          10.31708788133846   -6.13054365890630    6.82333011313588
O          12.45116887993462   -6.33231941082774    6.62884919434770
C          12.52686873805746   -5.20066121575009    4.16683595691953
C          12.20087833366770   -4.57724818059117    3.00783806083277
C          10.77990775483677   -4.35125603884871    2.98125351517917
C          10.09695558455302   -3.79474378208420    1.90307662867187
C           8.81214365667612   -4.10970590121014    1.40644927106038
C           8.66567284797857   -3.56693680438110    0.14777631023034
C           9.82001815961679   -2.82096968222004   -0.17517881912125
N           9.98564620197231   -2.13138722480859   -1.38286730284968
O           9.04857527850281   -2.12199525915857   -2.16136087933999
O          11.06435569488434   -1.59389666173661   -1.60755296116644
C          10.71478891499091   -2.87751208085892    0.91983113851265
C          11.80846865143706   -2.04911568694549    1.11197386450759
C          12.44314539415038   -1.80451718227905    2.32450837161309
C          13.61157309510899   -1.08221014148086    2.49119950383192
S          14.01776928761293   -0.54023604176745    4.09772232484612
C          15.36322814567504    0.39468447181433    3.53623845040581
C          15.58587060702433    0.18500458466216    2.14641042433811
C          14.60160268291335   -0.65221086159617    1.55260549445107
C          14.70839958735427   -0.99752317935583    0.20489759796136
C          15.74038779998826   -0.49142645855831   -0.56617703575498
C          15.84870247981030   -0.84506830354167   -2.01176517819602
C          16.71550836216474    0.31632495958621    0.03625097387560
C          16.66247883589959    0.63553788155354    1.37157735268294
C          16.03098119638427    1.23768994547932    4.43376934239322
C          16.74897654781283    2.34998138447055    4.06453410296878
C          17.37560505532725    3.25221297533171    4.94144134320064
C          17.41381120994600    4.63941430780064    4.73538794977586
N          16.98700077285809    5.36538303227843    3.60975219338107
O          17.06929880161015    6.57917231043064    3.66931488745389
O          16.57708772753913    4.75684433733872    2.63116653354380
C          17.86369888762717    5.28402116396532    5.92800941388404
C          18.20310563739758    4.33077034875714    6.83725395811808
C          18.03632638817177    3.03051433952389    6.24510046055111
C          18.61594507455293    1.86108046708091    6.69064503129803
C          18.40320338839368    0.52557395619751    6.21243385073721
C          18.91823627927007   -0.34536219835617    7.11554130389688
C          19.55224616416325    0.38868194597814    8.17771407545433
N          20.18425073235582   -0.31314635464700    9.22450938641762
O          20.38915123681475    0.25835285435565   10.28468121021556
O          20.45304906606745   -1.47958109575861    9.02092043798994
C          19.49119916054048    1.74936174495649    7.88874537720344
C          20.29884295691889    2.82390046157673    8.33352793772565
C          21.07043412979125    2.88499629737683    9.45505950130432
C          21.94775412764722    3.96528272722681    9.70968518378447
C          22.97091207011597    3.95794512457998   10.60779287949240
C          23.56589356629831    5.23067191777044   11.10771248346994
O          23.42130608910398    6.33042043992379   10.62743218581422
C          24.29819440380615    4.85160068571519   12.32941392262105
C          24.92539243835816    5.65712107399240   13.23662722873796
C          25.55149345580978    5.07353124604396   14.36002154411923
C          25.51066464085805    3.65769221387229   14.52625251387849
C          26.13127901066807    3.08396410596626   15.65264649416811
C          26.75909141626775    3.89367560326240   16.55840435328311
C          26.81091560180056    5.28703624808082   16.41216575647503
C          26.21335070518736    5.86090095776910   15.32484429150516
F          27.35246525206367    3.34829835018784   17.63372432249813
C          24.85907137619036    2.84611061709587   13.56813346491221
C          24.26737511043379    3.43340800138362   12.48290224790567
C          23.57066719539462    2.85937387309369   11.33549453598389
C          23.66728806546975    1.56514335114910   10.89758802190943
C          23.23519277399342    1.14199562399752    9.62223309628001
N          22.96235530469269    0.78268107413585    8.56700542165675
C          24.33157745727130    0.54783636334487   11.61538376413638
N          24.86302915464864   -0.30236415946384   12.17265450388468
H           8.19062428284004   -4.53929874244548   12.21583121999926
H           4.19312125301993   -5.97758248216164   12.61718485917737
H           3.91705994019206   -5.96309978772792   10.15071591167596
H           9.13684322185047   -4.11357970173992    9.99553297907387
H           4.84187927907634   -5.55129477138421    7.90011761728643
H           8.14096112286758   -4.89186210860573    3.87133170081626
H          13.48695751440071   -5.56549198701917    4.47619448144767
H          12.85949028805352   -4.37391860076569    2.18620472809618
H           8.10555411861007   -4.77477824523666    1.86202759625473
H           7.82334475157541   -3.68561971457769   -0.50817811758882
H          12.10316286146507   -1.46586132944479    0.24934113544994
H          11.95341799007115   -2.12441706192138    3.23704773626880
H          14.00838660609356   -1.67907333880534   -0.24811728674136
H          16.56907817010845   -1.65322123783235   -2.14330394942457
H          16.19853699940323    0.00712158317147   -2.58964661024768
H          14.89076670437192   -1.17412165725127   -2.40531050521273
H          17.53982582297731    0.67343429210351   -0.56234683290995
H          17.46145778605366    1.20267218065925    1.81885187415430
H          15.84675020152129    1.05949134045714    5.48631353832100
H          16.66922520021830    2.68513599671654    3.03846203067001
H          17.89470185907549    6.35006467574789    6.05059559861053
H          18.51438930352163    4.51249400497527    7.84616533352706
H          17.89588777686071    0.25953812518840    5.30818194986854
H          18.89497659917485   -1.41825832802478    7.08100527091556
H          20.39213549969427    3.64165903484796    7.62963291400101
H          21.00589272240001    2.10213092094152   10.19747526055926
H          21.77103264365897    4.90702881448768    9.19939976368607
H          24.94315262725927    6.72786460076354   13.09868008590119
H          26.11385169637873    2.01492839181226   15.79606643353274
H          27.32013410656833    5.87449884763469   17.15956951657874
H          26.24008009726173    6.93171422648853   15.19037968799342
H          24.83480834241763    1.77884211866315   13.72164444998824
