126
 SCF done       -256.555430161456          0.000810357851
C         -10.95373318714416    3.70318071777657    1.65897444663868
C         -10.23977228147971    4.58206692807942    2.42365306324139
F         -10.83390433227150    5.66824504213219    2.93322367104339
C          -8.87230691561045    4.35885290489288    2.68605706686918
F          -8.19861226603637    5.23792970355276    3.43857914476970
C          -8.23804467516292    3.25967465954270    2.17887915192244
C          -8.94604630598199    2.33502966045794    1.38626661797033
C         -10.32918227626729    2.55920676352904    1.12112272101227
C         -11.06083166206463    1.64384456863693    0.33251931440011
C         -10.42898852870931    0.53700236176128   -0.17269747634109
C          -9.04700901461926    0.32022894281293    0.09815964858459
C          -8.31413137004987    1.19068857741447    0.85182890941605
C          -8.61480678238114   -0.93064502025319   -0.54883853269594
O          -7.48963617861348   -1.31733915266629   -0.75504116305940
C          -9.88228549062425   -1.56625571518099   -1.03441260202000
C         -10.93415726654927   -0.56411384387074   -0.98389409742529
C         -12.15373994275545   -0.63235969703239   -1.59778815982167
C         -12.54451227728827   -1.69395085303055   -2.44232847168609
N         -12.88460443919995   -2.52940797412154   -3.15176884206976
C         -13.14185819375198    0.37151857526618   -1.50709684491365
N         -13.97813923530200    1.15554625462806   -1.46533838138734
C          -9.98840591300917   -2.87818696541889   -1.33464966843602
C          -8.95550891652744   -3.84647923937486   -1.10586914786196
C          -8.18909410499903   -4.05614240236745    0.02617179218400
N          -8.20498149837182   -3.36339020905560    1.25246380032300
O          -8.96135637245051   -2.41174595290422    1.39224238746922
O          -7.47671826302229   -3.77859398760437    2.13328022045572
C          -7.38550720298929   -5.24483700180295   -0.15173525565226
C          -7.68840275188285   -5.79651139795362   -1.34746019181255
C          -8.67828470404247   -4.97291418247534   -2.00290955819405
C          -9.18143081599992   -5.13251457339936   -3.27266790716293
C          -9.65283493733882   -4.09210853216312   -4.13340063364078
C          -9.69994212206970   -4.56616832487663   -5.40833070113740
C          -9.34519925379452   -5.95855312054618   -5.40687761194278
N          -9.36011345807362   -6.74671719555224   -6.57113695092396
O          -9.01418057579824   -7.91842825199507   -6.49391103721546
O          -9.69828231505667   -6.20723874338816   -7.60696116199423
C          -9.08947670127485   -6.36095126350754   -4.10018295336123
C          -8.98660604873071   -7.69664399725994   -3.66906416704827
C          -9.26437711391474   -8.14890016335152   -2.41206601221492
C          -9.25946113405568   -9.50551053738696   -2.01564432321666
S          -9.09861992447364   -9.84271176171027   -0.31885279001729
C          -9.10061040261888  -11.55861115256786   -0.59166586366250
C          -9.23850334677033  -11.84238667296616   -1.95474171919122
C          -9.36081877040311  -10.69338850773667   -2.74620171645969
C          -9.75646691862070  -10.75550960001273   -4.20064918058900
C         -10.82039232919439   -9.80067142474873   -4.44792221814445
N         -11.70226019444491   -9.09423443172034   -4.61238769316063
C         -10.27063561100286  -12.15800980703341   -4.56027997625014
C          -9.26480211131851  -13.19479858604619   -4.08776977252383
C          -9.22931451174411  -13.22772761225528   -2.55002931735423
C          -8.02620143209641  -13.92882131193949   -2.15230025141631
N          -7.06118207826878  -14.47758939100414   -1.88068866628710
C          -9.03062399268755  -12.36521982285107    0.57111451142186
C          -9.09773367466472  -13.71677573383682    0.65647724428482
C          -9.06639042681187  -14.42858934918738    1.88128513980648
S          -8.79661248048558  -13.63410423586787    3.39867640473099
C          -8.83375929435066  -15.13784406797609    4.26194449495348
C          -9.05005162807537  -16.20424108241248    3.39362569450053
C          -9.21071678588244  -15.80333429992160    2.06020299041298
C          -9.55180486666838  -16.75467171958562    0.94688963920565
N         -10.76241350418328  -16.23548980817296    0.23672399371457
O         -10.60629505403207  -15.82782242109545   -0.89123784015752
O         -11.80301830922569  -16.24188519709218    0.83582299699450
C          -9.89313061222758  -18.14740904233010    1.47963555401954
C          -8.93789508279474  -18.55513309602172    2.58987336674202
C          -9.13513688547804  -17.64560371321373    3.80528559218700
N          -8.05936753981334  -17.97804532213312    4.77626856739970
O          -6.92257188960722  -17.80580375570736    4.42176596184451
O          -8.40269306671667  -18.40193942783279    5.85570060789942
C          -8.71391190579244  -15.16804185037778    5.67384573553243
C          -8.73136127146375  -14.07463895800919    6.47696566690475
C          -8.61547798386452  -14.11711257652349    7.88942740216864
C          -8.77650891917217  -15.14404498979049    8.77072667570315
C          -8.18912010151360  -14.97005007948101   10.13719361317087
O          -7.80753273203045  -13.93280749116663   10.62379762382312
C          -8.13174914107315  -16.32503323821381   10.71407322052753
C          -7.55442289604925  -16.74117942949174   11.87940242196002
C          -7.58667787973876  -18.11496621164889   12.20720455080460
C          -8.20559244912934  -19.03455920587129   11.31048409194521
C          -8.22122533694416  -20.40541556818560   11.63740993168820
C          -7.65469254091145  -20.84223585845214   12.80175572526185
C          -7.04569325578491  -19.93169234478110   13.68932812554905
C          -7.01116255548479  -18.59656603802245   13.39929061914076
F          -6.49808060158510  -20.38847918500415   14.82263969218351
F          -7.67271501052182  -22.14433099351605   13.11215814853571
C          -8.79983665936042  -18.57315406256014   10.11396609859145
C          -8.77536825612526  -17.23454180248836    9.82847036089938
C          -9.32305505972882  -16.48478334677401    8.70012041474747
C         -10.33788317366350  -16.94101497552314    7.90102437400499
C         -10.98629998707006  -16.17729771591090    6.91315272381970
N         -11.53004132888092  -15.61307445623365    6.07362968712183
C         -10.89763635124707  -18.23391104646638    7.99290962659733
N         -11.40397525356086  -19.26312739922824    8.00371488625981
H         -11.99914710538600    3.88910695660931    1.46803377578645
H          -7.19189301227990    3.10253961980255    2.38982428755202
H         -12.10752211218795    1.83398658021053    0.15569600877335
H          -7.26965652400669    1.00249990187603    1.04712300982638
H         -10.91256219437889   -3.27173815461227   -1.74032461768290
H          -6.67534561646233   -5.58744150502228    0.57597835677126
H          -7.21302093721068   -6.64412527649341   -1.80049588870423
H          -9.80799753062196   -3.07453205978267   -3.83375171209069
H          -9.95515820895895   -4.02196171968309   -6.29821765787264
H          -8.75316087240429   -8.39943948652422   -4.45259508713185
H          -9.49947977500706   -7.44190859941348   -1.62856196220844
H          -8.90769934100002  -10.50878616827348   -4.85082253900152
H         -10.40906400821784  -12.22366267365972   -5.63983330701927
H         -11.23803873818294  -12.33148535762398   -4.08230051688818
H          -8.27280362409443  -12.94763824313114   -4.47517520065692
H          -9.53303138222912  -14.18526277193348   -4.45677958522145
H         -10.09407780406443  -13.79579973955113   -2.17926609421087
H          -8.95313302179411  -11.80634956038689    1.49670472008455
H          -9.16567667505236  -14.31315693123146   -0.23510038571971
H          -8.74559604124662  -16.78417041559125    0.20465177674002
H          -9.84775184469017  -18.87285834068762    0.66652322529236
H         -10.91361409805281  -18.12857106751446    1.87173906142847
H          -7.90335011673036  -18.46605536285166    2.24859148068887
H          -9.12384501013649  -19.59217169248669    2.87279028581446
H         -10.08900695634143  -17.84930457006405    4.30719794253936
H          -8.59283605169872  -16.13033066987964    6.14313267731926
H          -8.78262769143213  -13.09242995223049    6.02555004099971
H          -8.28045343501601  -13.19540371704477    8.35785553546630
H          -7.07735543984118  -16.03342593842632   12.53998402453351
H          -8.68626798954075  -21.11455860620379   10.97066471053440
H          -6.54032170328022  -17.91305902912095   14.08834421542568
H          -9.24452493713045  -19.29028162704546    9.44299214716073
