121
 SCF done       -252.768002687323          0.000949901453
C          -3.37856892538086   -2.05579866985705   -7.78127337050987
C          -2.21972272680240   -2.75830452849469   -7.95940813619598
F          -1.12913989435375   -2.14817850044628   -8.43484194621056
C          -2.15784182267872   -4.13210655337507   -7.64575590755900
F          -1.01049599973096   -4.79469402161234   -7.83083474573479
C          -3.25616798091687   -4.78374146637077   -7.15880250799273
C          -4.46548730184674   -4.08768960428240   -6.96523087027584
C          -4.52876016232470   -2.69846999862340   -7.28048420618368
C          -5.73041424048537   -1.97951620126893   -7.09198429987436
C          -6.83428547999554   -2.62937486953884   -6.60449305365313
C          -6.76630604593909   -4.01996496219360   -6.30111761766615
C          -5.61692385500498   -4.73884711369483   -6.47118490604496
C          -8.08218481954877   -4.49051662641051   -5.83558293613575
O          -8.39846773755716   -5.61556863086895   -5.52127723121474
C          -8.97121607301825   -3.29673192007364   -5.90294228888985
C          -8.17577309488290   -2.14771468642078   -6.30166289669325
C          -8.59336432952399   -0.84632312940564   -6.30150743730998
C          -9.86669226190599   -0.43427860117523   -5.85025420853182
N         -10.86878362000504   -0.04963109306024   -5.44491023033629
C          -7.78528542638558    0.24387591098339   -6.69072341824603
N          -7.17026168976799    1.16007474126720   -7.00403789830855
C         -10.31791443818596   -3.37534795637807   -5.78922519440616
C         -11.03166882616398   -4.54112604974869   -5.36642099736607
C         -12.02342733954175   -5.17017646739091   -6.08401117945922
N         -12.47395895631679   -4.77105820273151   -7.35797544993743
O         -13.42093258331862   -5.36349012910015   -7.83467147624573
O         -11.88510657668335   -3.84696125348689   -7.89711687225407
C         -12.47541222281737   -6.34270752347126   -5.37465484507280
C         -11.73410097622572   -6.46685657094613   -4.24868916005792
C         -10.81115400133682   -5.36201780773521   -4.16462448006206
C          -9.98220017500169   -5.02705714421435   -3.12035683144697
C          -9.54596565034164   -3.70400355714751   -2.79260524906531
C          -8.86476678478783   -3.75255502107650   -1.61882424504600
C          -8.79065057972379   -5.11461571099988   -1.16692954958714
N          -8.04610051770525   -5.40417595592774   -0.00355787264150
O          -8.21082307988377   -6.46557869892049    0.57528812980849
O          -7.26839853735829   -4.54669569216409    0.37199366160366
C          -9.45340585463074   -5.94127102287879   -2.08043529562280
C          -9.49039386412056   -7.33895163987651   -2.26818388275559
C          -9.16589385126007   -8.30878713019999   -1.35660507820453
C          -9.20873579254656   -9.68202713002353   -1.66234239952623
N          -8.85154257564612  -10.65864946010519   -0.76569856040570
C          -8.25936775874542  -10.45802736611884    0.54159732733144
C          -9.29030865621344  -10.19250298565691    1.63174214330238
C          -9.01571647791191  -11.94695860449271   -1.29419513779509
O          -8.80607204731249  -12.96968638163098   -0.68116018371338
C          -9.47567477184332  -11.72111324090807   -2.65505830639869
C          -9.60033280078156  -10.33252249387415   -2.84853048977482
C         -10.07924067534924  -10.11608414326825   -4.19846640498731
O         -10.38178843424487   -9.10911220910108   -4.80438400663753
N         -10.18837178241951  -11.41013155312127   -4.74439383247806
C         -10.47613823013697  -11.60497379430912   -6.14679183826681
C          -9.20813076100383  -11.90258970488591   -6.94246312017857
C          -9.83176795611535  -12.37683866373115   -3.83733846695462
C          -9.89225450748046  -13.76624365400277   -4.08865275365951
C          -9.40551387744141  -14.69460030624836   -3.22140778191163
C          -9.55682629652631  -16.08561912579673   -3.43779261678202
O         -10.43287726014424  -16.54647388844630   -4.36247461416408
C         -10.45433566900416  -17.89451174053233   -4.32914130558975
C          -9.54507372877240  -18.33372244560573   -3.36513327886344
C          -8.97785312079015  -17.17231277832988   -2.78634763687923
N          -8.05323965350461  -17.09360277956226   -1.68981907748503
O          -7.25348938017878  -16.18850915900407   -1.72874327105615
O          -8.17847033551450  -17.91215424931222   -0.81536628917309
N          -9.15230548379401  -19.69013113381335   -3.12742967219560
O          -9.96547629414871  -20.54940518259232   -3.38117732241949
O          -8.02217905592154  -19.86537472610575   -2.74465216044437
C         -11.28166135762915  -18.66206998879357   -5.19995619238329
C         -12.27085654855692  -18.20232024142655   -5.99964792600648
C         -12.79123435272112  -16.87429983345097   -6.12865238744610
C         -13.06162579846609  -15.92429749346884   -5.20244711771444
C         -13.31694707206114  -14.52476472251359   -5.65572247347951
O         -13.50218769985953  -14.15812284265903   -6.79169875969718
C         -13.17398566325516  -13.69104253753436   -4.44744065905307
C         -13.21424334366858  -12.32992341490409   -4.34032945844223
C         -12.95277473015197  -11.73303521408176   -3.08855734484280
C         -12.66007683788335  -12.56203706619122   -1.96605706609975
C         -12.39860183028938  -11.95935548198745   -0.71879440920818
C         -12.42407328040458  -10.59876134778901   -0.59875391800560
C         -12.68657534630087   -9.78151595824097   -1.71647435594926
C         -12.95358289556424  -10.33236041187586   -2.93695863065475
F         -12.66145565439542   -8.44915818351061   -1.56614759616346
F         -12.19981922406119  -10.01631053904644    0.58338068052916
C         -12.65269588002316  -13.96876053353495   -2.10042016275036
C         -12.91848127752757  -14.52762493534527   -3.32300314298446
C         -13.02088411243417  -15.92067471752948   -3.74905902847372
C         -13.23705301675954  -16.98948750815473   -2.92569437229579
C         -13.60363684623870  -18.26986881270633   -3.39234004414940
N         -13.95356609869399  -19.30804467354173   -3.72965604532291
C         -13.20899713311529  -16.90353440745952   -1.51648436350793
N         -13.17042541444873  -16.87572274955616   -0.37094083819917
H          -3.40836563657922   -1.00534032945585   -8.02510355705523
H          -3.19206305775227   -5.83472522396653   -6.92439630582712
H          -5.75139679482881   -0.93167292309640   -7.34493037807518
H          -5.58859450121661   -5.79141068989508   -6.23369203093695
H         -10.93249042929438   -2.54230568004413   -6.11399782058377
H         -13.26722319731221   -6.97574676688722   -5.72615803878055
H         -11.87948988814571   -7.18551497966784   -3.46962169429052
H          -9.82008343032319   -2.81745376579764   -3.33083339033701
H          -8.43839673475614   -2.93079454374232   -1.07431403077906
H          -9.79251142050006   -7.65526113721020   -3.25794645148993
H          -8.87945930909535   -8.03236633830201   -0.35386306560689
H          -7.54604161914897   -9.63271088065553    0.48482284511123
H          -7.71935605027216  -11.38123868862266    0.76921551363969
H          -9.85633274352736   -9.28745852396724    1.43090714208498
H          -8.77815204737508  -10.07162343427776    2.58148349026850
H          -9.97926784512860  -11.02844276172483    1.71549178018363
H         -10.91769201109921  -10.66814274564159   -6.49675827873489
H         -11.20521792340988  -12.40888508425227   -6.27163543725917
H          -8.50826099486022  -11.07525975828292   -6.85464646298636
H          -9.45867640155914  -12.03564141406557   -7.99078108388951
H          -8.72426229789454  -12.80707179211403   -6.57992466274330
H         -10.34123607432278  -14.09351219221594   -5.01655360059103
H          -8.86858134036319  -14.39850806824390   -2.32972721341359
H         -11.06387578673770  -19.72120088729875   -5.19607472902634
H         -12.71196385290364  -18.91768716772715   -6.68267559014411
H         -13.01558032053842  -16.57282633540787   -7.15006476146626
H         -13.43977853583392  -11.71487862505706   -5.19821360729596
H         -12.18875094969928  -12.57220516214456    0.14365679436860
H         -13.15708295013205   -9.69419107216759   -3.78257567675348
H         -12.42811275041800  -14.56893645763526   -1.23354704200131
