106
 SCF done       -224.670288271311          0.000581832596
C         -15.20629754860097   -7.11282889137780    1.48494756343058
C         -16.11973894019412   -6.59382957914507    2.35999540746214
F         -17.42939075928739   -6.74922845357271    2.13541319899582
C         -15.69627914684435   -5.88982531566200    3.50556588610452
F         -16.61249044630375   -5.39182623214323    4.34424272740179
C         -14.36442632338450   -5.71443029680779    3.76007363503084
C         -13.39967766282233   -6.23554905998859    2.87646363966547
C         -13.82667215405378   -6.94831505283090    1.71824947421361
C         -12.87593728061928   -7.48023339329272    0.81604598566256
C         -11.54121283316161   -7.29955386510851    1.06195718955887
C         -11.12373804294459   -6.58038059018083    2.21933619365211
C         -12.01730663179385   -6.06154086090448    3.11175300762926
C          -9.65363898244914   -6.51334413273799    2.24020862127179
O          -8.95494018787850   -5.99878504695001    3.09524226879621
C          -9.20261004251819   -7.16853558668931    1.00593429730273
C         -10.35268458474146   -7.72485001496906    0.32657837436904
C         -10.33594759648427   -8.55787095615059   -0.76302413758976
C         -11.49917380450328   -9.06288244947228   -1.38108304438513
N         -12.40997936225528   -9.49452963641943   -1.93011818822479
C          -9.17191749495745   -9.07054210684978   -1.37614255644139
N          -8.27411031793642   -9.56065317403040   -1.89779036624506
C          -7.91964117989003   -7.12553920365445    0.51625292958257
C          -6.76510264492641   -6.60686638078162    1.10756614187421
S          -6.56473258746601   -5.97184537478731    2.71578566541286
C          -4.80692057414692   -5.69759104214226    2.47023723388621
S          -3.83940553294245   -5.09048841265755    3.67774396230201
C          -4.47313576786993   -6.06634172922518    1.18486039800806
C          -5.52417967051992   -6.56632261114416    0.41932375941071
C          -5.20137845315049   -6.92747337278725   -0.91148295308550
C          -3.89237207429056   -6.75991878484488   -1.26354791876380
S          -2.98918752560284   -6.09956983094458    0.18838307252880
O          -2.52206562527245   -4.77698849839945   -0.10563664648283
O          -2.04669860656546   -7.05482211837321    0.69480895682972
C          -3.41235713088051   -6.97978783454417   -2.56749472605446
N          -2.12106514384389   -7.00535560454708   -3.00324551495504
C          -0.89869806051992   -6.81246602607538   -2.25225933500871
C          -0.40036990242036   -5.37395048520776   -2.36322582804841
C          -2.04138034975593   -7.24791510796253   -4.39213516991190
O          -0.99832907101373   -7.33785983635525   -5.00090261634252
C          -3.42108000095916   -7.36788213653080   -4.82178781125758
C          -4.23666614971929   -7.21311994336152   -3.69666661621133
C          -5.62292096095536   -7.31040462899436   -4.13012757904820
O          -6.67128009607674   -7.21986734448494   -3.52457188413858
N          -5.53969744129133   -7.53956481866228   -5.50735116647200
C          -6.73006034555547   -7.70186629545814   -6.31096087963959
C          -7.13852501918136   -6.39683774386690   -6.98860197276424
C          -4.23946273357547   -7.56503673504501   -5.95541380775821
C          -3.87569023475335   -7.72556174734718   -7.29393731781106
C          -2.56583255578254   -7.81777465264414   -7.71516449198051
C          -2.19447209051066   -7.92795801224464   -9.05487989167413
S          -0.63882168520156   -8.59157442447229   -9.50178021244353
C          -1.04065112276906   -8.59656822058180  -11.23845351613956
S          -0.02392165830882   -9.17970725859256  -12.40853022779853
C          -2.29852070262675   -8.03056400324699  -11.39120915657747
C          -2.93835754466808   -7.63340937330563  -10.22307549524601
C          -4.15842237814324   -6.90630732385558  -10.42281258419123
C          -4.61368763268499   -6.88579783099287  -11.69069762769676
S          -3.40165698229534   -7.74151089425466  -12.76985216220455
O          -2.90844858168873   -6.77927433626835  -13.70678796044388
O          -3.87106170424254   -8.99328254578817  -13.28764612815385
C          -5.67467923668848   -6.13861734595381  -12.26494013506350
C          -6.40267220019888   -6.49108933232779  -13.34973999476923
C          -7.13518514219624   -5.45934191728454  -14.14933234153418
O          -7.39108861633401   -4.33210422805431  -13.80437590448618
C          -7.41213167648891   -6.11627712531380  -15.43941106870996
C          -7.93673667416420   -5.57560499973480  -16.57926699714613
C          -8.10025134142578   -6.39709133057046  -17.71636644264550
C          -7.70890960135679   -7.76736840562083  -17.65454902699580
C          -7.87105092213029   -8.57768465165371  -18.79639569794115
C          -8.39979277234645   -8.05467343510082  -19.94319492240841
C          -8.78794386991621   -6.70013109128147  -20.00247877989457
C          -8.64127709480982   -5.88769219210272  -18.91333408532961
F          -9.30353182686467   -6.21562727887393  -21.13861317116151
F          -8.55644085822353   -8.82576298855353  -21.02504438024411
C          -7.17261358057574   -8.30179076300379  -16.46087723289250
C          -7.03307385791642   -7.48942647424682  -15.36760626315999
C          -6.54751442301224   -7.76811900209408  -14.02220635087753
C          -6.48267022373371   -8.98994103799061  -13.41398001523745
C          -6.23822927439239   -9.13208393354657  -12.03242196097347
N          -6.11054770392676   -9.24423285046261  -10.89715342717900
C          -6.74186461231423  -10.20799035343491  -14.07701243022214
N          -6.96829901883385  -11.21131248963777  -14.58343678494057
H         -15.54785394586108   -7.64983226906192    0.61381411991774
H         -14.05676611124372   -5.17313419149459    4.64097903025022
H         -13.23064421493155   -8.01193551738237   -0.05205114120073
H         -11.67504432409164   -5.52317642417555    3.98229221336046
H          -7.76415177525010   -7.51754939046181   -0.48110890346592
H          -5.94723001023039   -7.29500024506506   -1.60092512860164
H          -0.15906782885401   -7.48602920607385   -2.69620797424333
H          -1.05939000624208   -7.08720153738907   -1.21126115139861
H          -0.27032239184814   -5.10009452832396   -3.40790280423597
H           0.55741934334005   -5.28971411787654   -1.85881092957098
H          -1.09957048904461   -4.69034541005543   -1.88920051487897
H          -7.52011778845707   -8.02043119992430   -5.62571544856608
H          -6.56471750212125   -8.49046037480513   -7.04851578445041
H          -7.37450491054957   -5.64520772608522   -6.23938856200745
H          -8.01808410559498   -6.56411821925083   -7.60337189591880
H          -6.33866306705019   -6.01546035789754   -7.61946094847255
H          -4.66618560405409   -7.83505985316386   -8.02025891591722
H          -1.77614617113027   -7.86280319388135   -6.97553858566607
H          -4.66381055898498   -6.40891973257836   -9.61092557503748
H          -5.85377775247939   -5.14180025107097  -11.86971593168325
H          -8.22171113378774   -4.53503693757276  -16.61300922728525
H          -7.58124928904640   -9.61637103096560  -18.76770627337859
H          -8.94215630381006   -4.85358852553778  -18.97503023387483
H          -6.87224186302557   -9.33728931797934  -16.43845411877073
