123
 SCF done       -245.011877091844          0.000878357302
C          -8.39763400509484  -16.41217475004784    7.99292900384421
C          -7.27477523523440  -17.10187759009006    7.63051567747219
F          -6.82714801784721  -18.10679982923569    8.39118563967070
C          -6.57449303162753  -16.76564276273966    6.45336874420201
F          -5.47837850384907  -17.45860022130693    6.12292926994716
C          -7.00701284852175  -15.74370971235462    5.65564661890220
C          -8.16056707036541  -15.01342682018122    6.00246181310449
C          -8.87052649003899  -15.35356086792745    7.19130530747833
C         -10.03163865253818  -14.63653034926340    7.55735786661396
C         -10.46922584131543  -13.61118998394555    6.75996341530648
C          -9.74866894267714  -13.27086043619253    5.57837881849740
C          -8.62428891268464  -13.94836119359660    5.19981969112485
C         -10.39158037912726  -12.12004931479302    4.92238549076285
O         -10.03913403052470  -11.54907752639355    3.91329835082440
C         -11.53283012693413  -11.75322958338676    5.80358969704430
C         -11.61928142163312  -12.72445198971598    6.88194912225138
C         -12.63694211687852  -12.82783390768546    7.78723290693396
C         -13.79202565163359  -12.01554030068407    7.75797710525010
N         -14.76655938417379  -11.41046200360928    7.74280834375799
C         -12.68384286293473  -13.79062938424488    8.81854681896993
N         -12.76351030073865  -14.55212925386531    9.67263811116933
C         -12.20567473473535  -10.58843976918214    5.66686973238042
C         -12.02203947106576   -9.70642723732911    4.54845434387356
C         -11.51481665577842   -8.42928086442824    4.62102929039180
N         -11.10779972033955   -7.80934781773001    5.81572600511490
O         -10.74229633439606   -6.65222728140057    5.76450255025348
O         -11.15210566084379   -8.48325818761250    6.83517016734369
C         -11.38231691403364   -7.87924328543268    3.29486678291198
C         -11.75755304670872   -8.83185626584943    2.40831230069477
C         -12.18757375432715  -10.00900873940639    3.12683978155122
C         -12.77444219094006  -11.14790728319492    2.62665679443130
C         -13.70848177639385  -11.98255090933411    3.31320784585123
C         -14.28342144033935  -12.80955588671657    2.40442553131393
C         -13.68314289325000  -12.60364119465360    1.10693268947135
N         -14.06923166917537  -13.43121794092282    0.04422584488852
O         -14.83186213153151  -14.34855047857889    0.30459074176598
O         -13.63975307936670  -13.23401228835726   -1.08444535329964
C         -12.70662907720680  -11.61220666665799    1.21824712626158
C         -11.68202975059876  -11.12008388584076    0.37691641196644
C         -11.67171939254579  -11.17999855234794   -0.98391028210116
C         -10.75481864415175  -10.52501043998435   -1.85482367006194
C          -9.82507578793726   -9.57069529354727   -1.50289932773150
S          -9.20209710224422   -8.65874400535989   -2.81151537854478
C         -10.24531523071928   -9.50906896181188   -3.92988702327670
C         -10.94191925891427  -10.55482652474500   -3.28696741043965
C         -11.68971768759096  -11.44143668754967   -4.07142053808215
C         -11.93618068136399  -12.85001244803528   -3.62268974870117
C         -11.49363729099388  -13.85340071249185   -4.68986809832475
C         -12.00222915330194  -10.96616509088927   -5.35557715456168
C         -11.24732283954954   -9.88150005404152   -5.86947956708590
N         -10.32035070558438   -9.21502451654267   -5.20854307021766
S         -11.64757368393954   -9.54221856653682   -7.52548322208419
C         -12.89833740029111  -10.73366868677913   -7.47738704143412
C         -12.99152894495658  -11.40897351273582   -6.30016235287580
C         -14.09515459183886  -12.29169049887030   -5.91568589915672
C         -14.68431620057164  -12.05952240103178   -4.66631386321806
C         -15.69869231668065  -12.88642370633726   -4.24802775793517
C         -16.16140009862857  -13.92676429763908   -5.06020343612121
C         -17.22274611045357  -14.64724581267973   -4.30752391157757
O         -17.90435720530513  -15.57711201930820   -4.64913674993144
N         -17.30811614549876  -14.00022583540679   -3.08131495599404
C         -16.44294901663878  -12.92833312160615   -2.96281086398479
O         -16.35056107914069  -12.19875942082630   -2.00798341717281
C         -18.20006342470099  -14.43092946003628   -2.02379423476328
C         -17.59066880287212  -15.57004541340253   -1.21525535083482
C         -15.63908877867922  -14.13441270674217   -6.31466732409130
C         -14.59375070935512  -13.30479438337752   -6.75885477427989
C         -14.00363140517380  -13.51308610786426   -8.06359346619521
C         -14.68819118170483  -13.94642142327742   -9.14293854631703
C         -14.07601492248518  -14.10725179404904  -10.41448844353245
C         -14.63380604739277  -14.60286425147293  -11.54997567565102
C         -13.99060407038183  -14.31924507985003  -12.86507212420700
O         -12.86702820560748  -13.91329728299761  -13.04583242209709
C         -15.04148989151019  -14.57251168909502  -13.87033311330103
C         -15.01432791648807  -14.33865130780807  -15.21520626093459
C         -16.16553223348703  -14.61857458445988  -15.98445202461529
C         -17.32835334298257  -15.13392746673940  -15.34078349937599
C         -18.47775741494281  -15.39961574298664  -16.11211674068655
C         -18.47244283500434  -15.16645048795351  -17.45862220455406
C         -17.32121629483046  -14.65830716351058  -18.09445241489537
C         -16.19106533834291  -14.39044753548987  -17.37422466401863
F         -17.34557760856490  -14.43792799944447  -19.41495312531485
F         -19.56514580191278  -15.41795487303662  -18.18962649998507
C         -17.32416210967409  -15.37473417900894  -13.94800655593981
C         -16.19424415032472  -15.10356875875487  -13.22318532962529
C         -15.89533117186437  -15.27100170276436  -11.80268483286017
C         -16.57588018410624  -16.08944647066829  -10.94201487275647
C         -16.11891172752862  -16.43484292828795   -9.65245167402568
N         -15.77033849967743  -16.77053236665914   -8.61177217525908
C         -17.76608281683381  -16.76604722224062  -11.28601962909882
N         -18.74294279149635  -17.32177622030510  -11.51639011569750
H          -8.92184278974455  -16.68287165708891    8.89611052851258
H          -6.45927094847955  -15.49838757257929    4.75928269204860
H         -10.54453394083385  -14.91082267721677    8.46519970381891
H          -8.09495460078553  -13.67327384056622    4.30019358230547
H         -12.86097473998205  -10.23615408303761    6.45515014573020
H         -11.03618985465230   -6.88321618580159    3.09578020861156
H         -11.84684938569587   -8.70704240276948    1.34655869897694
H         -13.98982424709461  -11.87190548588313    4.34263535889436
H         -15.07060305972927  -13.52005646802290    2.57474023591322
H         -10.86761634827259  -10.63509146134483    0.89647259874732
H         -12.49847635871817  -11.67365664339664   -1.46897869997610
H          -9.50997706296140   -9.31700547580981   -0.50885155710502
H         -12.97981638429912  -13.03284235676456   -3.36723167530312
H         -11.34737203605548  -13.03300927441976   -2.72372549264124
H         -12.12052224854401  -13.80629477490104   -5.57476407040969
H         -11.55958873666986  -14.85878196298410   -4.28267951939762
H         -10.46224487836425  -13.66716367598485   -4.98438507011971
H         -13.55131493128122  -10.82508432753812   -8.32411183797105
H         -14.35750682919425  -11.23797293627736   -4.04752776454061
H         -19.13308277818289  -14.75402714729717   -2.49293590531183
H         -18.38523802279632  -13.56313933257275   -1.38661947224901
H         -17.38858881784111  -16.42049290806878   -1.86198805074797
H         -18.28617837939843  -15.87891610847773   -0.44014644377535
H         -16.66357875590997  -15.25244071134200   -0.74394485529865
H         -15.98183639205655  -14.95583569574719   -6.92560649377628
H         -12.94886735365767  -13.28942246406888   -8.16594258912954
H         -15.75088403458914  -14.12074487878018   -9.06145653002997
H         -13.06943580488542  -13.71705368263843  -10.52787325255131
H         -14.12743019063258  -13.94181658726107  -15.68525362897191
H         -19.36605047160813  -15.79177998934636  -15.64204932894120
H         -15.31859758444367  -14.00169097435851  -17.87556122035654
H         -18.22056165803166  -15.75681472493298  -13.48622385515527
