123
 SCF done       -263.066055083654          0.000707297238
C          -5.39856416238054   -2.51050306213176   -5.74185674757106
C          -4.12332111603648   -3.00248535797323   -5.72153223011755
F          -3.08689831531301   -2.19624358190492   -5.96872993739919
C          -3.88390940426987   -4.36390365676632   -5.44018482922080
F          -2.62663451895064   -4.81883418892084   -5.42673034447019
C          -4.92345085587869   -5.21378655582600   -5.18477655205634
C          -6.24911326461288   -4.73750678937838   -5.20115881607168
C          -6.49206310097492   -3.36082947457945   -5.48229241445712
C          -7.81333941956670   -2.86062702068590   -5.49865274910993
C          -8.85794753778707   -3.71100188072469   -5.24712031767919
C          -8.61018738953739   -5.08920035228146   -4.98115302774205
C          -7.34128256771404   -5.59651441155447   -4.95179066156220
C          -9.88792669881765   -5.79255219107103   -4.78833782416319
O         -10.04622802885816   -6.97315869723596   -4.54876822239991
C         -10.93926735966016   -4.76843823695104   -5.01591839862985
C         -10.29340733871906   -3.47554916487708   -5.18744167570802
C         -10.92498157909749   -2.26500090822876   -5.18611991734344
C         -12.31152488941164   -2.11660252708621   -4.95995622542594
N         -13.42285910376681   -1.95898833207932   -4.72330084667081
C         -10.26155080943366   -1.02783648921153   -5.33684052891297
N          -9.76324135642164   -0.00232943619949   -5.45949006412204
C         -12.23642033890648   -5.07327283827705   -5.25025225385025
C         -12.79008826822163   -6.38087341759974   -5.05163555691256
C         -13.33196710695832   -7.18688373924072   -6.02064749822429
N         -13.43329213585027   -6.82571497433420   -7.38206620948207
O         -14.02745786626531   -7.57231415772846   -8.12751826397728
O         -12.92272755116540   -5.76569323004419   -7.70828680755904
C         -13.68280944089220   -8.47137711654373   -5.45602317962155
C         -13.29674291357379   -8.47846267170283   -4.16047380576002
C         -12.74478191834302   -7.18141480865327   -3.82387106111348
C         -12.40265829570914   -6.71251206363995   -2.58107137476783
C         -12.53712425480309   -5.36435881192386   -2.11063349108970
C         -12.44993071078793   -5.37206703176191   -0.75360905473437
C         -12.14219396763678   -6.70629438445257   -0.30934568610110
N         -11.88587699760736   -7.02857555923885    1.03829771660823
O         -11.57456658771451   -8.17761076048200    1.30799762610656
O         -11.99534883313450   -6.13528885992115    1.85569214929821
C         -12.05394653905663   -7.54568476313212   -1.41016912980642
C         -11.52298662573712   -8.85159773415026   -1.47328948754980
C         -10.91039174210879   -9.33380092828445   -2.59205007736658
C         -10.28821222581387  -10.59659566465123   -2.68290730075393
S         -10.27833060058516  -11.72841963350023   -1.36975092012881
C          -9.29813911896085  -12.84830126984462   -2.27227566356481
C          -9.00407301238758  -12.34843281223306   -3.53510827403206
C          -9.56804157618663  -11.08953045584938   -3.77057107726436
C          -9.42971828666384  -10.36381220365370   -5.07090884087972
N         -10.77650634743124  -10.04002743317711   -5.63432045882893
O         -10.82971877361411   -9.12055004985470   -6.41008475971679
O         -11.69936296839110  -10.74157899153978   -5.30924607120669
C          -8.72510840930760  -11.23393317124940   -6.12094361771609
C          -7.53319680152348  -11.95038691246000   -5.49834719049851
C          -8.04434316167258  -12.98358672456190   -4.49322225909780
N          -6.89632517513964  -13.50897108395220   -3.70696889263232
O          -6.63772440181510  -14.67926699800930   -3.80151599462555
O          -6.31059933729027  -12.71114832051421   -3.01340319225394
C          -8.93935821397754  -14.07382058984060   -1.62722400107584
C          -9.08981147499786  -15.38526232666225   -2.02456326733721
N          -9.58695467009279  -15.87680322190633   -3.24957503756520
O          -9.87319102830341  -15.06333771889095   -4.11615979396419
O          -9.72323103294355  -17.07525342745987   -3.36121484571943
C          -8.81281365907545  -16.26334574799881   -0.90613423317860
C          -8.54149253625048  -15.51449407512381    0.18627567621823
C          -8.53240415515204  -14.12714116613893   -0.20498055013110
C          -8.03456337268624  -13.07257252481478    0.51204386092588
C          -7.46131005166560  -11.84971010161720   -0.00121575486807
C          -6.94795985383552  -11.14883911058654    1.03165213076993
C          -7.21814397030504  -11.86593078072537    2.26569066972408
N          -6.96304952404474  -11.28105769285382    3.53150798050941
O          -6.43564143329137  -10.18691899431838    3.53251022150306
O          -7.29913218801097  -11.89011553542920    4.53067915441662
C          -7.84946884650598  -13.05292770571427    1.98025779302615
C          -8.45233812647539  -14.02173581362118    2.84939580267632
C          -7.89065380819301  -14.67030551421884    3.89305957614182
C          -6.52036452854603  -14.58869746777499    4.26339343502443
C          -5.90312747912045  -15.37675390764648    5.17944407385443
C          -4.61940616471227  -14.94093452901275    5.81091252564072
O          -3.84418623941184  -14.12481276834131    5.38122718396771
C          -4.55275151484472  -15.69931961210082    7.07728114685956
C          -3.67462900416515  -15.56223317744808    8.11363247088937
C          -3.81982289168846  -16.38835421387382    9.25082462201570
C          -4.87622477535109  -17.34534220182908    9.29319222876495
C          -5.01841744513386  -18.15977330125757   10.43461257716035
C          -4.15239650813165  -18.03170233444775   11.48417652642341
C          -3.10740435245740  -17.08577577504159   11.44107834501209
C          -2.94314661705940  -16.28147787213770   10.34810673453008
F          -2.27563301068719  -16.98190650539273   12.48399684254101
F          -4.28886826747607  -18.80537817009020   12.56697529197431
C          -5.76603610370795  -17.47150011448067    8.20233454192624
C          -5.60439677002164  -16.66177999827950    7.11006297223208
C          -6.34486188781592  -16.57847028258674    5.85635959420288
C          -7.11982939204226  -17.56539624935665    5.30669735813699
C          -7.57494415170637  -17.52363500754459    3.97205318172872
N          -7.92159610771994  -17.52996880967892    2.87769527654081
C          -7.44829162511063  -18.76298082082655    5.97642752989114
N          -7.75010086167357  -19.74078911016367    6.49455953813668
H          -5.56403419149464   -1.46644553893211   -5.95694825234313
H          -4.72107366018263   -6.25162545538436   -4.97120164594359
H          -7.96995620256276   -1.81681003050864   -5.71859376796984
H          -7.16928575986400   -6.64131447760046   -4.74196668553006
H         -12.89776565574182   -4.33254454207408   -5.68504234280466
H         -14.14479002699570   -9.26327270964732   -6.01295533639932
H         -13.45409103383076   -9.26809440388313   -3.45250220322710
H         -12.80732022800330   -4.52839638681629   -2.72729881817530
H         -12.57636440888075   -4.54163126798099   -0.08449642225422
H         -11.51379922364638   -9.42792901658340   -0.55646389448511
H         -10.80896522897027   -8.68276748838008   -3.44777865700176
H          -8.91543726537911   -9.40434359712086   -4.94652424622817
H          -8.40602860391898  -10.61071593017951   -6.95643317016146
H          -9.42685511156832  -11.98296770342784   -6.49682927243301
H          -6.88676278260459  -11.23491604396268   -4.98374030487914
H          -6.95292988304457  -12.44890016086483   -6.27539910603653
H          -8.51385760600086  -13.83614370786012   -4.99948792878340
H          -8.83985586064411  -17.33345592819819   -0.98110253073873
H          -8.25876552997565  -15.88622070374962    1.15208689303122
H          -7.34382510917888  -11.62304990619894   -1.04249718745177
H          -6.42102856118116  -10.21436057763044    1.00337967017468
H          -9.47357740166130  -14.27443464544064    2.58895431213091
H          -8.52254766141966  -15.32804737074362    4.47204448305182
H          -5.91450157658156  -13.80100267683504    3.83720903057577
H          -2.88223611162418  -14.83086771805770    8.06887110941793
H          -5.81062901686072  -18.89044651153413   10.48314175583539
H          -2.13929789259853  -15.56232708201320   10.33115988871900
H          -6.56375365399929  -18.19517225108408    8.26171754262513
