117
 SCF done       -236.623815137159          0.000645499443
C           1.09755535344673   -1.43971622089126   -0.25129212714067
C           2.06568131468988   -1.67815358998842    0.68349538881327
F           2.98429848387369   -0.74440485587014    0.95426345381432
C           2.11014611785247   -2.90712535736177    1.37423362193490
F           3.06912463411103   -3.11183920692934    2.28466627895771
C           1.18553589152007   -3.88076998670076    1.11934507972750
C           0.17562340455842   -3.66528666365996    0.16118925422730
C           0.12846308529577   -2.42287442156985   -0.53706051581524
C          -0.87685545273122   -2.18406219839734   -1.50086286200737
C          -1.80711386237084   -3.15715454502660   -1.76088073226062
C          -1.74753605663250   -4.39925429400498   -1.06304405761041
C          -0.78860220159882   -4.65610875439722   -0.12445589417422
C          -2.82607126961103   -5.27773001856835   -1.53825328424858
O          -3.10301409332361   -6.40015019611212   -1.17550480235040
C          -3.52967295431290   -4.50632886297815   -2.59695715913035
C          -2.93864451739500   -3.17979965734600   -2.68147545108830
C          -3.39017128814767   -2.14133364881435   -3.44390695782682
C          -4.55308337560586   -2.20674625779947   -4.24294064168124
N          -5.51205488658865   -2.20684281117071   -4.87228497694696
C          -2.78221759901108   -0.86770924120619   -3.48895366508692
N          -2.32751825901394    0.18304895820425   -3.55636158281905
C          -4.47543198642224   -5.09424710994532   -3.35997398880141
C          -4.84652485025727   -6.48121283377080   -3.14930701181986
C          -4.32975336926416   -7.50035518473344   -3.90641072110922
N          -3.40166546797049   -7.29099653526424   -4.93637207904698
O          -2.96707826582891   -8.25419459631397   -5.53319215668238
O          -3.08591941641435   -6.12804529663619   -5.16412530666713
C          -4.78596722390467   -8.77762180601826   -3.40045553503507
C          -5.61088642864902   -8.53598363381008   -2.36231547158529
C          -5.74828093697286   -7.10278828866074   -2.17336080526049
C          -6.54521312794662   -6.42030290678538   -1.28641376319481
C          -6.42521441022503   -5.02328214057789   -0.96867787660361
C          -7.06885683810452   -4.77622618175827    0.20002962787229
C          -7.70624717721539   -5.98315924080745    0.64081038360945
N          -8.49719323753074   -6.03082079820965    1.80094503051511
O          -8.54819830996280   -5.02276441297190    2.48304134303143
O          -9.08334580815869   -7.06897308299889    2.07424709803647
C          -7.48254713641801   -6.99438087809621   -0.29525497314092
C          -8.13628427151707   -8.24228297501092   -0.31094779444016
C          -8.40625395526586   -8.95623645614055   -1.44648458668975
C          -9.02985314742036  -10.21208641014322   -1.57630881648135
N          -9.45055703972340  -11.11298573695753   -0.62829190175612
C          -9.45554712975801  -10.98242034480617    0.81146988370659
C         -10.64492958932177  -10.16689468495631    1.31027302524357
C          -9.97403907967982  -12.28626618449115   -1.21654212234748
O         -10.40587260312824  -13.22450137279627   -0.58553591667952
C          -9.83917726458412  -12.06371681767657   -2.64223162779444
C          -9.26717847086709  -10.80112176292699   -2.83057443777519
C          -9.11352952365405  -10.59189769561879   -4.25576804105681
O          -8.66881219943745   -9.66585224142094   -4.89467891641130
N          -9.62973948792706  -11.77558332383239   -4.84201051528857
C          -9.60574085372825  -11.92487012729717   -6.27860627448481
C          -8.41476840541373  -12.75807552828845   -6.74544264331602
C         -10.05284800993075  -12.66741245845077   -3.89118563203792
C         -10.60946809110942  -13.96327947291988   -4.00203366380385
C         -10.85382366017229  -14.71896275624633   -5.10445352986457
C         -11.39993063523614  -16.03834688339722   -5.07200754148245
C         -11.56449430575058  -16.73738948928698   -6.30181494372473
N         -11.35448816848162  -16.35100153154613   -7.54313736926741
O         -11.67620902501917  -17.38060629253211   -8.31558299039516
N         -12.09053358054936  -18.44217381206784   -7.62437624839086
C         -12.03798003687780  -18.09645765495300   -6.35267119710624
C         -12.38351029106961  -18.79375601014506   -5.16272132213634
C         -12.28337985369327  -18.05120739024058   -3.99390113375556
C         -11.79264093019731  -16.74507467866603   -3.94208464394576
C         -12.85761556166645  -20.14312070800161   -5.14228449500996
C         -12.64540192910235  -21.15025209267244   -6.02335670794016
C         -13.54769688325402  -22.34350288492381   -5.98019670662365
O         -14.31474112776938  -22.63030944115402   -5.09319456575133
C         -13.32915426082296  -23.03670299861902   -7.26267909633190
C         -13.99294970227276  -24.11274068656141   -7.77909800921055
C         -13.62466239979417  -24.59918703973927   -9.05299495931766
C         -12.57856564337047  -23.95177567241828   -9.77399245435960
C         -12.22294214901773  -24.43767566170495  -11.04847700417687
C         -12.87098165472061  -25.51734347974514  -11.57965809073752
C         -13.90321157862506  -26.15853936060106  -10.86427631443195
C         -14.27335463030505  -25.70980766626317   -9.62754702181520
F         -14.52032327862776  -27.21400743595955  -11.40953904435763
F         -12.53074930671306  -25.97876401826063  -12.78884109665716
C         -11.90546674233249  -22.84340957932975   -9.21163934651618
C         -12.26888220810169  -22.39801066681732   -7.96858290968177
C         -11.73492550192215  -21.32359721395017   -7.13793906833844
C         -10.49065796712267  -20.77043834032160   -7.26517473047911
C          -9.91303359602218  -19.91046876466796   -6.30963993143296
N          -9.40017113134080  -19.22142232685398   -5.54796531428275
C          -9.60889664662994  -21.05802795456630   -8.32895181899586
N          -8.85799723957653  -21.25189426659181   -9.17414861840013
H           1.07824356068943   -0.49389659823843   -0.76983494613225
H           1.23340170027538   -4.81571232541082    1.65533430882007
H          -0.88400994428551   -1.23674112132147   -2.01562641694137
H          -0.76559193716144   -5.60477812184205    0.38994135726357
H          -4.93697803795223   -4.57847101884038   -4.19321041952518
H          -4.46750046736792   -9.72165362331640   -3.79732742322104
H          -6.06595585661827   -9.27481538156456   -1.73500743740594
H          -5.86313252999558   -4.31412974171078   -1.54147176324744
H          -7.13182404273603   -3.84594821423959    0.73242495206321
H          -8.53837214121923   -8.55464674356576    0.64123194741266
H          -8.14937907253502   -8.52016481340868   -2.40451336490120
H          -8.50785242694831  -10.55338650005561    1.14352281718633
H          -9.53129351033219  -12.00246513120699    1.20041019199808
H         -10.65268319964987   -9.16652700477987    0.88588044631238
H         -10.59443274138810  -10.07516190753134    2.39088766534087
H         -11.57350348744252  -10.66591678204346    1.04408278440759
H          -9.51579295293007  -10.91174457018124   -6.68196105695114
H         -10.55267356620691  -12.35131894207917   -6.61660303458580
H          -7.48738200359723  -12.25413659521581   -6.48500173327425
H          -8.45289574618760  -12.87660313537539   -7.82439698204661
H          -8.41402259374136  -13.74329438910862   -6.28510201941878
H         -10.84434906291998  -14.37433818336585   -3.02840350964061
H         -10.62562209209638  -14.36587018478385   -6.09779357137836
H         -12.55736169812760  -18.52851863638167   -3.06439664982507
H         -11.71437484676784  -16.27942351792238   -2.97240549689087
H         -13.52669193824663  -20.39024817590441   -4.32258751426448
H         -14.78793724260974  -24.58623900663300   -7.22335442184194
H         -11.43306942208479  -23.96122796045569  -11.60781639342626
H         -15.06524412394124  -26.21096814603105   -9.09326072647558
H         -11.12510630578141  -22.36523841735533   -9.78171554307130
