100
 SCF done       -220.196783861995          0.000250654015
C          -6.25513721258371    1.57725630312005    6.44498403597793
C          -7.33121072581519    2.40244519739607    6.61577484079490
F          -7.27737142054356    3.40351502138175    7.50183812561679
C          -8.50904489924713    2.21170154966428    5.86413564068875
F          -9.54693900743102    3.03495885168159    6.05361979171858
C          -8.59393313647519    1.19749008351690    4.95175848586300
C          -7.50230984264097    0.32987665257831    4.75362690374296
C          -6.31019627309798    0.52234947903253    5.51163133337872
C          -5.20117221772160   -0.33427446896658    5.32751700548931
C          -5.27942000887549   -1.34968305465067    4.40981377788060
C          -6.47581172090864   -1.53693028302716    3.66152424775909
C          -7.56520118914144   -0.72949291994317    3.82193607271077
C          -6.32409661625435   -2.69598776942064    2.76545093715451
O          -7.17932573730897   -3.20919567705800    2.08323383959962
C          -4.93767955109013   -3.19950575542875    3.00000359478365
C          -4.31038257080753   -2.36310329827822    4.00656570454254
C          -3.01478167814369   -2.45523753892967    4.44037398643474
C          -2.08140088782255   -3.40808261466870    3.97889279471238
N          -1.27497447453527   -4.14951938868552    3.63651473763095
C          -2.43840372796393   -1.59233882227053    5.39727493288702
N          -1.92000829323189   -0.92619537712327    6.17443921183328
C          -4.46460812098108   -4.36523444994883    2.48166627585579
C          -5.02503198895573   -5.03208714079277    1.35849352392111
O          -4.89448738180013   -6.37478948116063    1.25651595226261
C          -5.43272110769669   -6.78795053094313    0.08771722406950
C          -5.90469411965885   -5.67398508036259   -0.60459330207485
C          -5.64543122467780   -4.55917744832185    0.20468571351780
F          -5.85571651388860   -3.29487949220783   -0.11475413685031
F          -6.54747494449409   -5.67069017033025   -1.75546769830922
C          -5.50315784775617   -8.16698322847208   -0.25243951475650
N          -5.43037158617745   -9.18177476438263    0.66432572492737
C          -5.23434097920883   -9.06002224145955    2.08322748819340
C          -5.64223368114523  -10.44122572172997    0.06254586823237
O          -5.64760138269465  -11.48063610469381    0.68431004522031
C          -5.81776014334884  -10.13770166647928   -1.34070209363563
C          -5.71279510400144   -8.73725437440052   -1.50756287234480
C          -5.78485509219619   -8.44686171770918   -2.93279568458165
O          -5.64472694435714   -7.43438586408782   -3.57280585827449
N          -6.01476217554774   -9.70961011566576   -3.51922286640675
C          -6.17815352325224   -9.85544885094628   -4.94040170281529
C          -6.03369949942156  -10.72235269008953   -2.59605959246291
C          -6.27303526984638  -12.07075268683079   -2.93261846597386
C          -6.29096207911659  -13.06569399787153   -1.99852081443889
C          -6.58526169904920  -14.42411415797917   -2.26642672999514
C          -6.61059056281007  -15.34956897956282   -1.18426387476808
C          -7.00747771970022  -16.71760126424478   -1.35285699538495
N          -7.00007466959916  -17.55397706085288   -0.30002189276393
C          -6.66027675767872  -17.09404314555356    0.87616820072849
C          -6.30242790752126  -15.71476810157183    1.05238983706853
N          -6.27066855086634  -14.89926596690223    0.03086951570986
C          -5.95353317717340  -15.23142809191890    2.33979537136821
N          -5.68138271189866  -14.88795256381423    3.39748892782431
C          -6.62536141284943  -17.97970657458401    1.98448652248869
N          -6.58686670915871  -18.66140669451952    2.90345073250493
C          -7.46551967576965  -17.21580161854132   -2.59698410496800
C          -7.36149080952433  -16.32774451104205   -3.68794223088134
C          -6.91701912370716  -14.96055752255668   -3.53257156854537
N          -6.89743326878250  -14.32163836049274   -4.70380539768313
S          -7.36799578300672  -15.31998156910447   -5.86661617231208
N          -7.63174824429565  -16.61750327458003   -4.96265119958601
C          -7.94962895161606  -18.55077683151980   -2.68342662739232
C          -8.81340455528322  -19.10302267563215   -3.57648909846419
C          -8.85783899098625  -20.58916450850300   -3.72019453108183
O          -8.35647323596919  -21.40210027793790   -2.98242166940585
C          -9.59157085182271  -20.83235890084099   -4.97897030211619
C          -9.81650336463040  -22.01332813698831   -5.62555972956745
C         -10.53559649713703  -22.00424249899188   -6.84201686485853
C         -11.00085263456767  -20.76459346132540   -7.37005786939816
C         -11.71085063876896  -20.76163055492608   -8.58758713582763
C         -11.95158381848489  -21.93391243191152   -9.24747537779799
C         -11.49363565093224  -23.15962397866123   -8.72291804817112
C         -10.80021664222979  -23.19537976520513   -7.54552508885442
F         -11.74380621358241  -24.29244935997463   -9.39152692365640
F         -12.62711816067890  -21.92874111302088  -10.40338772126550
C         -10.75773709111390  -19.55808883170715   -6.67486094408223
C         -10.06991339472037  -19.59229096591861   -5.49121685784347
C          -9.71452307161036  -18.53272504438039   -4.55231912282038
C         -10.30927729331322  -17.29949993677612   -4.49239430640670
C         -10.12883939639742  -16.38794696359587   -3.43444072429447
N         -10.02248968960662  -15.61289622833564   -2.59369619662520
C         -11.20452846031240  -16.80746166974608   -5.46354632338832
N         -11.90688205344404  -16.33836902124165   -6.24094117059401
H          -5.36159436635543    1.73859274879461    7.02755493640385
H          -9.50176324628063    1.06427382278486    4.38455713674216
H          -4.31734972687109   -0.16737779018846    5.92171980799887
H          -8.45964303475652   -0.89550239394955    3.24121386536515
H          -3.62018795774552   -4.86838789584019    2.93426315658466
H          -5.99294032446895   -8.41600766404290    2.52931920222195
H          -4.24594053103475   -8.65767996166972    2.30687247619321
H          -5.31918888625738  -10.06472583029205    2.49843355592181
H          -6.07699215905867   -8.86003624278720   -5.37317095322933
H          -7.16524947983696  -10.25386064078580   -5.18081966021753
H          -5.41032365787959  -10.50927215070551   -5.35713280215338
H          -6.46916805035605  -12.31116331123444   -3.96723015489991
H          -6.08859420826424  -12.83616670899409   -0.95983802959771
H          -7.54302233682841  -19.23392037262501   -1.94321286370126
H          -9.45257564619996  -22.94247822413598   -5.21421434810231
H         -12.07225208512557  -19.83299858817437   -9.00096238828646
H         -10.45671134607115  -24.14146694164932   -7.15750662653120
H         -11.11553161363381  -18.63412759116395   -7.10027583206132
