115
 SCF done       -232.248103473059          0.000879374495
C          -7.66589104043822    2.72589989871036    3.80598221439419
C          -8.79680479718723    2.97906830087024    4.52936772051608
F          -9.27265778611588    4.22783861577682    4.62215246027361
C          -9.47750964563049    1.93351685545618    5.18612404330061
F         -10.58475127674122    2.21107985189427    5.88833877186654
C          -9.01718233014690    0.64933300410960    5.10967507793627
C          -7.85349129081762    0.35538660360054    4.37192917797231
C          -7.16417804180908    1.41149602990521    3.70725812223448
C          -5.99459663920076    1.14127006962691    2.96315030625504
C          -5.52820729396119   -0.14633438048303    2.88344888046587
C          -6.22520095441417   -1.19426127379272    3.54834377802655
C          -7.35382226221638   -0.96194367519781    4.27938998758124
C          -5.51492417740131   -2.46768353451411    3.33081260659841
O          -5.64890732026514   -3.49839473380742    3.94765633573427
C          -4.44540227163122   -2.15025487760600    2.32760629180977
C          -4.37157190189784   -0.70467376757669    2.19058076084791
C          -3.40987093344037    0.00524844961959    1.52686704658992
C          -2.28204910210059   -0.56789380753340    0.89990377621727
N          -1.34164821923320   -0.97208192674769    0.38133691838702
C          -3.40139438383956    1.41209098254271    1.41099098595327
N          -3.34146620830604    2.55074988910260    1.28283716959595
C          -3.76117503490371   -3.09964219486633    1.65616420742371
C          -4.12118261049527   -4.48957762524673    1.69879755907864
S          -2.86943212468668   -5.68121473298930    1.83117761688813
C          -5.37375349357255   -5.06866157721569    1.57798858773304
C          -6.62640131562693   -4.33538282597042    1.30437053713216
O          -6.74993787857487   -3.11984246980241    1.36980457320221
C          -7.71899468899688   -5.21731954562051    0.94216876525286
C          -9.00326726861856   -4.89717275339780    0.55233044318051
N          -9.69245416442303   -6.04283862647659    0.34899941790643
C         -11.04515601184312   -6.12349593593713   -0.14347933767265
C         -11.06870622296652   -6.17311350508391   -1.66970951808222
C          -8.88811434014849   -7.10486788974216    0.59132255918425
C          -7.64657637965029   -6.64038716685088    0.96713027923530
C          -6.45452286233438   -7.38029606406958    1.33903907258692
O          -6.37967353227956   -8.59618862682369    1.35967968087193
C          -5.31423541845590   -6.49088090715029    1.63660138310812
C          -4.03136919876477   -6.96239924581272    1.83699948985001
C          -3.55731049569009   -8.30714195428169    2.02324421305627
N          -3.99780683237018   -9.16083381410279    2.99137388647383
C          -5.01713342679880   -8.90962507626908    3.97130728086005
C          -3.28977387545112  -10.38722462565699    2.96505590394874
O          -3.47796683682095  -11.28540302268645    3.75553497631486
C          -2.35962514560635  -10.22717771221619    1.87130338453912
C          -2.53008684151460   -8.92892882793242    1.33046058378540
C          -1.60850654791665   -8.78282752908981    0.22539457831537
O          -1.38088732732087   -7.86420542207443   -0.53020262224109
N          -0.93179414060478  -10.02383346411042    0.17264403280478
C           0.09252476153659  -10.24650463459935   -0.81116782588619
C          -1.37102843982330  -10.88801491597650    1.14811632099093
C          -0.95119908848189  -12.20685067894692    1.44713158291695
C          -0.07067679712009  -13.00888823878708    0.79700728105235
C           0.24877248655559  -14.31133173471291    1.24762677143994
S          -0.37589241381485  -15.01622384965518    2.71726382900325
C           0.50403664518366  -16.51266927115620    2.48786963283328
C           1.23944121601207  -16.44989361938400    1.31283254703826
C           1.09190952083367  -15.22114802375945    0.63146041422479
C           1.88217419535561  -15.19191296374146   -0.59756740893838
O           1.99457392326149  -14.28230613852961   -1.38342039581675
C           2.54875516270080  -16.55594563090826   -0.68589544298926
C           2.16626238100371  -17.31708708336112    0.57567411100380
O           2.58046217024634  -18.40791603059185    0.88275713114459
C           0.32174456548198  -17.53125372094055    3.45506253015970
C           0.89804652019936  -18.75938700841947    3.42309943865980
C           0.70568263942337  -19.75720767196813    4.41308558383265
C          -0.32446827418646  -19.95833313220375    5.28190090098901
C          -0.08138451450994  -20.83234586428602    6.46831555627069
O           0.86386021406582  -21.56464620609520    6.64086995987299
C          -1.20171404149519  -20.56224536303257    7.38984812931324
C          -1.38595889550585  -21.00170312934495    8.66917959402573
C          -2.52987295968254  -20.57826571781595    9.38188698299468
C          -3.45712323652789  -19.69614496862988    8.75449701063850
C          -4.59061931318102  -19.26800003376944    9.47465703387365
C          -4.79604364609669  -19.69893874158907   10.75507230823577
C          -3.87948784777605  -20.57315886611046   11.37381394620382
C          -2.76962400380056  -21.00430687174393   10.70295909616944
F          -4.10607559909752  -20.97790658873003   12.63049583925027
F          -5.87433433867120  -19.29271664488556   11.43747090701261
C          -3.24187256582469  -19.26252628329370    7.42634566578552
C          -2.13468117625541  -19.69920441389947    6.74888293237354
C          -1.67399571377285  -19.44098231078913    5.38460203992686
C          -2.48114270239731  -19.00663864214084    4.36613333500988
C          -2.09538521313786  -18.91989991156394    3.01381512993304
N          -1.85015964742116  -18.83487099188640    1.89585889165448
C          -3.83654006052229  -18.65318889713137    4.53931339735592
N          -4.93803622417989  -18.34300102289827    4.62477199721533
H          -7.15653159275996    3.53767010118852    3.31055184930784
H          -9.54850288149108   -0.13912643887447    5.61938339960335
H          -5.49683872261763    1.96096581787486    2.47046880760280
H          -7.86129225060018   -1.77475126738263    4.77599002243610
H          -2.91115893303077   -2.84613481462662    1.03629660622629
H          -9.44728384434285   -3.93113538865964    0.41490752039104
H         -11.59660567944120   -5.24938793637584    0.21145395681877
H         -11.51129941600785   -7.02256768972847    0.26715989555389
H         -10.60956680587612   -5.27954479226412   -2.08564600476169
H         -12.09394778025063   -6.23494726388307   -2.02267622262217
H         -10.52273052412963   -7.04175298256866   -2.02951936630652
H          -9.23240759487224   -8.11547343331172    0.49506771983546
H          -6.00457176140785   -9.10446883517733    3.54810776614664
H          -4.96827413451672   -7.87805830526243    4.31960237306890
H          -4.84637304937297   -9.59656770325411    4.80018109304694
H           0.19938212980467   -9.31204583329565   -1.36431732495390
H          -0.19103351838123  -11.03805797217230   -1.50700245748180
H           1.04440449619162  -10.49339427723545   -0.33853518378442
H          -1.43951744165231  -12.60349269657127    2.33118255470521
H           0.43517261852078  -12.71344712262581   -0.10962237160574
H           3.63266974491740  -16.46909431795798   -0.78433867786888
H           2.19872868677902  -17.09468359276890   -1.56985026344214
H          -0.31497037528746  -17.25881907476952    4.28861995643466
H           1.60933274530593  -18.98600718240002    2.63999527174716
H           1.53275405176961  -20.44972459308504    4.54630853511231
H          -0.66785822664315  -21.66145418654517    9.13173833359764
H          -5.30378707168760  -18.60195035736350    9.01467852602273
H          -2.07749036684344  -21.67274038660040   11.19061990700972
H          -3.95425029770073  -18.58594508941365    6.98217305606298
