117
 SCF done       -244.971437297662          0.000847950172
C          -5.01460523845385   -3.38580750531936    5.90910546099241
C          -4.41878815930958   -4.32216259375603    6.70679974530837
F          -3.60567093264092   -3.94315074811249    7.69868639605301
C          -4.65285274110033   -5.69688763946852    6.49694552863325
F          -4.05819563229021   -6.59277468099041    7.29411296950969
C          -5.47959897299452   -6.11529050600059    5.49243378671072
C          -6.11115022965766   -5.17465964241002    4.65539838727984
C          -5.87429961762836   -3.78444349583419    4.86566721311601
C          -6.49887756617160   -2.82287100572299    4.03982459375339
C          -7.33919942372946   -3.23872152479758    3.04051006441629
C          -7.57945252901794   -4.62932368019508    2.84269132869847
C          -6.98178824621989   -5.58019335376562    3.62045515093531
C          -8.55082382042906   -4.81326962963530    1.75085835776172
O          -8.99072178161133   -5.85923758309762    1.32321983940029
C          -8.94207182532295   -3.43883273403594    1.34092733215703
C          -8.10982068621875   -2.48702648149959    2.05887559494004
C          -8.01021920708041   -1.15239309858206    1.78739703173948
C          -8.69010937833172   -0.52920923614397    0.71740972756881
N          -9.18693239842282   -0.00063734490170   -0.17118790143977
C          -7.17330374257341   -0.26336855760655    2.49540005441052
N          -6.50961316355200    0.49115619166971    3.04828967074693
C         -10.04776007302429   -3.18541489434554    0.60491732617434
C         -10.79729926382963   -4.21742012022540   -0.05481453466363
C         -12.10068210278061   -4.56998757512029    0.22657586076780
N         -12.88935403657239   -3.97074546352424    1.22645801732863
O         -14.04192151124397   -4.33957469473004    1.33660829420950
O         -12.35272331099733   -3.12645218445378    1.92765463361621
C         -12.48367625103318   -5.70589695353675   -0.57360667282082
C         -11.40840186627032   -6.08004683284481   -1.30606486765879
C         -10.31029204449519   -5.17806605347051   -1.03349264144689
C          -9.10367804884161   -5.12658495728002   -1.69196976300742
C          -8.30219653192484   -3.97587034264151   -1.94517853981148
C          -7.42406698779939   -4.27178632625185   -2.94634436508452
C          -7.56356372202921   -5.65446332723577   -3.30633735672195
N          -6.78990572166589   -6.28461569539400   -4.28873304521515
O          -7.01644302430145   -7.46279300155547   -4.54244194303466
O          -5.93801981376044   -5.62069656165665   -4.85089108360258
C          -8.54093503106396   -6.23183691877736   -2.50375226152182
C          -8.81987854565389   -7.59906057323981   -2.35116048315091
C          -9.28981721248631   -8.16836233293893   -1.20411691675690
C          -9.49259738095721   -9.56432521778193   -1.04042907372959
C          -9.67912905443339  -10.12169090073924    0.22099038765707
O          -9.78362940222270   -9.41699045720616    1.33490320934770
C          -9.88052550419733  -10.11126496096858    2.55921330436052
S          -9.74926978810271  -11.85578173748920    0.18548889457951
C          -9.49925244010675  -11.84900374425389   -1.54641514671205
O          -9.50468845317710  -12.95846921281964   -2.27294390391276
C          -9.32908398082082  -14.18725395131987   -1.59641584539245
C          -9.41301012101970  -10.58038354322697   -2.05882329923676
C          -9.17141805007247  -10.37478704937633   -3.47501298903825
C          -8.08942546137748  -10.85274226742467   -4.16765015601240
N          -6.96196651693877  -11.52884783852060   -3.64776588175086
O          -6.09767654696432  -11.85219521500299   -4.43495427202726
O          -6.91770595476625  -11.75580560624021   -2.44953032020060
C          -8.19448367606104  -10.47488264594631   -5.56387112872331
C          -9.38438938696252   -9.86488753659729   -5.75297478429804
C         -10.09564056411615   -9.81015362751990   -4.49889816784188
C         -11.41443018692267   -9.49512426641553   -4.28694559806197
C         -12.03272623963427   -9.22590879404980   -3.01016024663330
C         -13.30825476660563   -8.83724051317219   -3.21125021711390
C         -13.59982739841665   -8.91186622064511   -4.62498821737458
N         -14.91828931819541   -8.72406185066265   -5.07476668939847
O         -15.68471521218933   -8.15074833322431   -4.31600703813909
O         -15.23309283037784   -9.12954795174592   -6.18110954280692
C         -12.46829859385909   -9.30952203491001   -5.31517314362075
C         -12.28191138393412   -9.63792765448078   -6.69474999847958
C         -12.85326472565500   -9.11024186000904   -7.80285857614966
C         -13.76803240827920   -8.01764640393952   -7.92481480216745
C         -13.87638019200831   -6.86792346165298   -7.21727676422444
C         -15.17277334897827   -6.11346855025206   -7.24957870375369
O         -16.00413301142755   -6.14878606267242   -8.11797085600624
C         -15.19857651235412   -5.37306537863916   -5.97106414248870
C         -16.22812376882782   -4.68472750653381   -5.39699308766359
C         -16.01821778750362   -4.04745553922283   -4.15328702379583
C         -14.74284674961584   -4.14055945763426   -3.52312379542638
C         -14.52679160674507   -3.46549673320593   -2.30548311089503
C         -15.53074017764880   -2.74002244087560   -1.72860549355568
C         -16.80062126330021   -2.66971129604241   -2.33967420788084
C         -17.03877767776931   -3.30653425040063   -3.52621347205837
F         -17.77006549464137   -1.96028633046874   -1.75328241393055
F         -15.31093526775396   -2.07820133340490   -0.59066197940962
C         -13.70516080093645   -4.88623542946907   -4.12291064046567
C         -13.92790291282697   -5.48603181705420   -5.33413486142885
C         -13.05121040239676   -6.28279650642789   -6.18082841995675
C         -11.68381426886143   -6.31780607856499   -6.12605587692714
C         -10.90419750892620   -6.95958642234937   -7.10796866938622
N         -10.24979503470470   -7.46572006988456   -7.90257190745004
C         -10.93173110276011   -5.67295561179056   -5.12950170615697
N         -10.29161177728876   -5.17509845048810   -4.31671298542827
H          -4.82393119478461   -2.33824105057916    6.08235691194809
H          -5.64725829004115   -7.17077931699089    5.34573393569432
H          -6.30773228428296   -1.77795544011596    4.22477363444230
H          -7.17520954853893   -6.62856065138837    3.45049342001281
H         -10.45574013171881   -2.18245154580919    0.55669380525090
H         -13.46339428471025   -6.14312895507523   -0.55486074150687
H         -11.37864204168042   -6.84544664883471   -2.05591349646569
H          -8.47108495252441   -3.00575663955843   -1.51778257651812
H          -6.73109877883837   -3.60422560642239   -3.42402219605414
H          -8.50978296516213   -8.23648746544754   -3.16962556003914
H          -9.43504828262689   -7.56498390940505   -0.31772924293185
H          -9.97171225290016   -9.34861666757980    3.32942118655989
H          -8.98793541651582  -10.71863309473713    2.73620539153447
H         -10.76188916719023  -10.76002814418643    2.57184248579471
H          -8.36686315511156  -14.20536289144910   -1.07807202167557
H          -9.34998843689418  -14.95783168222046   -2.36361823404351
H         -10.13776076106864  -14.35618926338147   -0.87785213297346
H          -7.41728727448973  -10.65046118212124   -6.28198152952231
H          -9.71450594281825   -9.41031436345026   -6.66519875120899
H         -11.53760187843009   -9.28554883811391   -2.06481674540390
H         -14.03611279174195   -8.54265644102750   -2.47978804483650
H         -11.59217899716872  -10.45703458304254   -6.85227317571787
H         -12.64214439852915   -9.60965681250603   -8.73999312093376
H         -14.52888366401942   -8.14768518020467   -8.68972788732970
H         -17.18782705082247   -4.62320346024239   -5.88625995884124
H         -13.55699778421023   -3.50738455254620   -1.83596034979214
H         -18.01339175355128   -3.23339745148284   -3.98260723581630
H         -12.76194411338497   -4.97360838002414   -3.60685439870110
