120
 SCF done       -239.620038876655          0.000838486412
C         -11.79846140119536   -0.98268162429758  -11.19802965543039
C         -12.98994329942576   -1.15684993351800  -11.84460325450687
F         -13.61666075026463   -0.10888955535495  -12.39666811700814
C         -13.57419480557131   -2.43543525482949  -11.93868956896849
F         -14.74452361300990   -2.57750709610611  -12.57734268805785
C         -12.95919844452765   -3.52262817666941  -11.38392968023336
C         -11.73192291293141   -3.37526162097542  -10.70925490403105
C         -11.13862730316015   -2.08330249863912  -10.61575392826049
C          -9.90290384266087   -1.91216945438690   -9.94980225264906
C          -9.28133592156635   -2.99957444972330   -9.39627759228168
C          -9.88519263895466   -4.28378276352142   -9.48684008483191
C         -11.07731446350213   -4.48050612286975  -10.12091187639192
C          -9.02516077430220   -5.27821531405526   -8.81828222422981
O          -9.30568559310110   -6.44118677641086   -8.61050939795468
C          -7.84428513986491   -4.52825033712967   -8.33695005094075
C          -8.01598865650326   -3.13522196355843   -8.67999986928649
C          -7.11548025311655   -2.12136684406245   -8.46134568696664
C          -5.86256223064018   -2.27078888379812   -7.83468421414147
N          -4.82690461648265   -2.31503918712483   -7.33819959302075
C          -7.32523994222161   -0.78201047083835   -8.84820695631042
N          -7.44126480886808    0.32580249512813   -9.12722925106021
C          -6.84275136053107   -5.02827787135692   -7.54203379196574
C          -6.43457017351902   -6.36404793675505   -7.37458319317031
C          -6.66878842001725   -7.48263562851862   -8.19700871480144
N          -7.16540234872181   -7.53021669496360   -9.50978867801088
O          -7.62678823647830   -8.60236896625097   -9.87802953658430
O          -7.06336969120652   -6.55241043989324  -10.22530460961014
C          -6.14984772249798   -8.63990230576599   -7.57089505833693
C          -5.62776748221105   -8.28089217240491   -6.35473416441136
C          -5.75471938141813   -6.87146902890745   -6.19239295832799
C          -5.28962951303453   -6.13966353166113   -5.08686861541920
C          -4.72969439425467   -4.85791021174219   -5.07002419391069
C          -4.28217834284292   -4.58235618703090   -3.78921349560355
C          -4.58531598033239   -5.65677155968909   -2.92988841045864
N          -4.19845578562139   -5.61249951327557   -1.58439513785348
O          -3.75906053548625   -4.55380280804305   -1.16657728085111
O          -4.28926004886047   -6.61698948239161   -0.88836329520689
C          -5.25190880272393   -6.66070508166447   -3.68772715827223
C          -5.96249106265510   -7.80332734167322   -3.36643847330842
C          -6.12065717668976   -8.41186408257674   -2.12486674095199
C          -6.72185192675037   -9.64030439578325   -1.88808091760562
C          -6.49376916556289  -10.33102933401932   -0.67217260138716
C          -6.93954461438401  -11.63467384144702   -0.78385101032050
O          -6.82270657868443  -12.55212404182385    0.20558923243472
C          -6.10744218247876  -13.72910719695165   -0.12643696016802
C          -7.54625349348862  -11.81166348738825   -2.06864453352495
C          -7.38912315988074  -10.58134188886252   -2.78805747288992
C          -7.86590537044368  -10.37622477251463   -4.08173912840482
C          -8.45855377290728   -9.24549206472831   -4.65717312184758
C          -8.86526443626686   -9.57362348507918   -5.94779545708452
O          -9.56816108426987   -8.78653691715171   -6.70878504705196
C         -10.03468730670952   -9.23722539389295   -7.97008054941444
C          -8.40048205429646  -10.93803222749074   -6.24483965298883
C          -7.84031919303803  -11.42453130458246   -5.13077779783417
C          -8.45359852486711  -12.83065264281755   -2.46536498729453
C          -8.97950340308293  -13.79602996641640   -1.67171459757501
C         -10.00689499944333  -14.70051596089130   -2.10683050830157
C         -10.91614445065562  -15.26431701970315   -1.24508429864151
S         -12.14666919990744  -16.14177755091602   -2.04706710645992
C         -11.45803704946946  -15.78683594290202   -3.57300377776042
C         -10.32513024043186  -15.03599406371913   -3.46846278705647
C          -9.45763959748174  -14.75751423019408   -4.62710409574055
O          -9.77274470479455  -14.32617174065006   -5.69908980345627
O          -8.18303611836962  -15.13745562247618   -4.30664120767340
C          -7.17755831977261  -15.01365531505927   -5.20785185460215
C          -5.92665114420330  -15.39419206985609   -4.89432879149190
C          -5.50900526030942  -15.95509301902629   -3.64729265346921
C          -6.19922490321286  -16.66384623597179   -2.71549581539844
C          -5.63988867865640  -16.75079442614140   -1.33103330082248
O          -4.51911718838333  -16.46031432286522   -0.98702797753323
C          -6.76852399854086  -17.18128387499356   -0.48200252284011
C          -6.83045066925657  -17.28624618837308    0.87846826522142
C          -8.04709676961393  -17.67402721138961    1.48345960069062
C          -9.17671767159070  -17.95725849810775    0.66145960305090
C         -10.39243250115847  -18.33065508738271    1.26894094376925
C         -10.48089294961220  -18.42500301440613    2.62964606120881
C          -9.36092867512220  -18.15156190037653    3.44243906509689
C          -8.16920514504007  -17.78354715528709    2.88260745480709
F          -9.47714603168811  -18.25280909559168    4.77067143178071
F         -11.63576756014099  -18.77605107237875    3.20488055388493
C          -9.07440585815436  -17.86615153279271   -0.74482357987689
C          -7.88845807702311  -17.47814565254287   -1.30866222829917
C          -7.49941470664613  -17.30062796621086   -2.70423119337727
C          -8.17485668728343  -17.80980771110302   -3.78057926804074
C          -7.66731932082600  -17.81421964198412   -5.09501657023109
N          -7.28566127237554  -17.83598698884991   -6.17646507321402
C          -9.44640327101627  -18.41213926541153   -3.69959006773350
N         -10.50307225783751  -18.86023917361025   -3.69589215768792
H         -11.36342821304422    0.00266783802913  -11.13710859141202
H         -13.41938779353659   -4.49485806920710  -11.46598886525931
H          -9.48117615910574   -0.92169615597703   -9.89528479747544
H         -11.51171802356366   -5.46668972180260  -10.18282042434918
H          -6.29610410531051   -4.30914343150477   -6.95110780945935
H          -6.13851690630597   -9.61593150411169   -8.01866555866954
H          -5.08329803362483   -8.93210061442573   -5.69722135546161
H          -4.55240146539956   -4.22120674255984   -5.91586768308884
H          -3.76219837172823   -3.69586386849480   -3.47595254318322
H          -6.43315327712989   -8.29276592599186   -4.20485340023321
H          -5.65512661382034   -7.94887579210157   -1.26446028121846
H          -5.98772630091354   -9.91881091843310    0.18004720676028
H          -5.03693855475627  -13.51605497728270   -0.19907960072311
H          -6.44592395952011  -14.16427482385779   -1.07036063821700
H          -6.27789981092424  -14.43195417086312    0.68625789170527
H          -8.69770468297032   -8.32978123153326   -4.15418089381169
H          -9.21046370258680   -9.30686304438407   -8.68797914276916
H         -10.72402151981648   -8.47050399338526   -8.31432148993965
H         -10.54088623880945  -10.20065860660678   -7.88602660522976
H          -8.49156489048638  -11.42154353208644   -7.19804635010890
H          -7.31427907123850  -12.35416562852083   -5.02038378664003
H          -8.84932810898879  -12.73236413073978   -3.46794666737897
H          -8.73591211497693  -13.83677448655575   -0.62006080680288
H         -10.93805362784372  -15.16361275124403   -0.17790969183492
H         -11.89216932630812  -16.18718199355645   -4.46763125696876
H          -7.44428795735346  -14.56952758283902   -6.15897929010434
H          -5.15051058059806  -15.18496516190004   -5.61439614725141
H          -4.48613335199994  -15.72639494088079   -3.35983405502931
H          -5.96278701062800  -17.07729984251909    1.48593517067199
H         -11.25703778460099  -18.54765970605735    0.66100574203638
H          -7.32288722818560  -17.57766108189594    3.51904949346485
H          -9.94066579783362  -18.10361521706285   -1.34040515565114
