128
 SCF done       -247.317174746206          0.000447406894
C         -12.79495708401094    1.78984147581807   -3.70063314468949
C         -13.43568218782192    2.50184514574162   -2.72603468756179
F         -13.85938001295741    3.74747087406124   -2.97043419987282
C         -13.65881569813256    1.93690271652488   -1.45325913554565
F         -14.28934757902782    2.65830483497043   -0.51831082537465
C         -13.23762715324382    0.66732107469926   -1.17322506860060
C         -12.57422196780907   -0.09227492262014   -2.15678850608203
C         -12.34778796970531    0.47764602670222   -3.44392678252373
C         -11.68392023869506   -0.26506063642677   -4.44564892586592
C         -11.25823584167811   -1.53922914919050   -4.17083551715692
C         -11.49290236924022   -2.10263775771246   -2.88251065504807
C         -12.13114174063869   -1.40711803512864   -1.89514998516125
C         -10.96342363702952   -3.47563196202752   -2.84552311403402
O         -10.96915321379744   -4.26108635718955   -1.92421185874025
C         -10.41270675060449   -3.72462181490156   -4.20529236455094
C         -10.55432535185203   -2.51294260478046   -4.99837642528867
C         -10.08632372315084   -2.31549689865716   -6.26553524359666
C          -9.34214900612282   -3.27214926889754   -6.99105032839089
N          -8.70581710830874   -3.99778266414194   -7.61115364683634
C         -10.25451304225572   -1.11870100427815   -6.99573373577824
N         -10.36148753040079   -0.16967545053276   -7.63122189965421
C          -9.98139912798923   -4.95075764571145   -4.56448855739474
C          -9.99519976361378   -6.06901818333219   -3.63938692193412
C         -10.99327374208972   -7.01398491178902   -3.63901593187012
N         -12.10128565716473   -6.95308094018826   -4.48950001445505
O         -12.14213905595249   -6.01630489247192   -5.28110641386711
O         -12.95146846973895   -7.81843119169803   -4.40457403142657
C         -10.74641430025345   -7.99888353328732   -2.60955260006372
C          -9.56859837271818   -7.69459387675871   -2.03009890480513
C          -9.01462020742456   -6.50334052177177   -2.65312771989656
C          -7.81187170949840   -5.89176631906946   -2.37439664560539
C          -7.48168008166677   -4.52068087724028   -2.61626923136711
C          -6.38942643500064   -4.19173574670913   -1.87322102755760
C          -5.91161225850930   -5.36224606388357   -1.20112686079913
N          -4.75270922049222   -5.36470543280506   -0.41165123764507
O          -4.17885479192385   -4.30088482697199   -0.25352333243764
O          -4.38148850728048   -6.41996586899142    0.08546064352900
C          -6.71704149589690   -6.44957901222972   -1.54926123237032
C          -6.42902180568000   -7.80480742267031   -1.31259725665879
C          -6.89650107864539   -8.81817864827287   -2.10818142541656
C          -6.74589054487130  -10.20966510581836   -1.98406727974350
N          -6.09133494836529  -10.98190669983885   -1.05629075394008
C          -5.31284744137948  -10.55104124630851    0.08301168927680
C          -6.19912158847653  -10.15547795598673    1.26104250631172
C          -6.27518257451872  -12.36259970036583   -1.29893304696034
O          -5.79677540502831  -13.23626341045254   -0.61243272525386
C          -7.10938191990433  -12.41153567573277   -2.48491377587057
C          -7.36792293519264  -11.09379987313471   -2.88053994764355
C          -8.22218815019942  -11.13495448376621   -4.04496973215187
O          -8.72281353194265  -10.25959772850694   -4.71588176631161
N          -8.41625170200349  -12.51867906199120   -4.28852513385360
C          -9.16318915231397  -12.91862746736929   -5.45793614310879
C          -8.24285834551184  -13.35649256059035   -6.59353201370808
C          -7.76025684563993  -13.29181080011235   -3.36288025700479
C          -7.71800012095300  -14.69898549437345   -3.18562803763274
C          -8.31130715307710  -15.67578391474254   -3.91312293107842
C          -8.20011304259259  -17.08415090949090   -3.61216096379843
C          -7.02280864945039  -17.55348816733996   -3.00098413969418
C          -6.87179675498656  -18.89815038094761   -2.77779163012482
C          -7.87281883861662  -19.80452792065240   -3.15474800683224
C          -7.41180491887508  -21.17073983747702   -2.80335449269439
O          -7.96923037262583  -22.22801915287051   -2.95272648938558
N          -6.15453486951293  -20.99941925202105   -2.24674869933868
C          -5.75084835556491  -19.67110469736439   -2.19115953810111
O          -4.69596869212685  -19.28672454179301   -1.75772704952477
C          -5.35600444781937  -22.09170012683759   -1.73215034174767
C          -5.61388773143900  -22.31072565008496   -0.24566302348820
C          -9.03374126513291  -19.37676457881602   -3.74318259376674
C          -9.23224236963290  -18.00070098890150   -3.96522204314775
C         -10.48279627262852  -17.53052678371061   -4.50293856091583
C         -11.59026564865546  -18.27428285449067   -4.71516189161008
C         -12.81321561666745  -17.74851312614707   -5.23302845322850
S         -14.27621894986573  -18.34052538759176   -4.52287802328526
C         -15.26006091138503  -17.16628549959736   -5.30997473478566
C         -14.47893436160697  -16.31616594247423   -6.09800242916447
C         -13.09301731372770  -16.71666833428731   -6.13681199712491
C         -12.25504434097508  -16.13267726743384   -7.12948038138722
C         -10.92941529642054  -16.70605400408078   -7.54457397896342
F         -10.80818533704769  -18.02330838449585   -7.34512162707609
F         -10.70546804252088  -16.51516875049137   -8.85533183571467
F          -9.87211509764067  -16.12528538169905   -6.92843747842401
C         -12.71306605223616  -15.06372098800326   -7.85799335204622
C         -13.98369110705451  -14.52070316902254   -7.63203310015602
C         -14.87390925080582  -15.12746237318645   -6.78346907156488
O         -16.11728386036902  -14.57509523235713   -6.65888860281462
C         -16.43199284832030  -14.04023026390675   -5.38581204226680
C         -16.68621795017115  -17.29504351184024   -5.13390683137165
C         -17.61443391357095  -16.98080532623652   -6.03474670639082
H         -12.63220720207595    2.23716310567509   -4.66876299948541
H         -13.41619096968161    0.24941938259478   -0.19487969536970
H         -11.53060404354929    0.19149501386451   -5.41020690265508
H         -12.29665896448152   -1.85671113538593   -0.92787897766796
H          -9.65707101367991   -5.16144030758336   -5.57639721179546
H         -11.42279481320960   -8.79708967788360   -2.37525949577092
H          -9.12386626521225   -8.19367920951543   -1.19264893592239
H          -8.06729876240281   -3.84576646973641   -3.20643502977020
H          -5.92413504053925   -3.22785606076610   -1.78556177867380
H          -5.72540967822973   -7.99691074394521   -0.51647939350550
H          -7.47491001006969   -8.55101433370142   -2.98405968552375
H          -4.65159230234275   -9.73323188629097   -0.21001615865858
H          -4.69883559264003  -11.41071470292764    0.36696058596968
H          -6.89272588394607   -9.36417875872647    0.98638270401647
H          -5.57822289610046   -9.80317681035168    2.07929509126680
H          -6.77073792670509  -11.01564797741382    1.60122814166416
H          -9.72151748394957  -12.02923023268062   -5.76661445695983
H          -9.88024164848420  -13.69965908726111   -5.19548531213888
H          -7.59573822482625  -12.53157424269150   -6.88095486161058
H          -8.83543636191378  -13.64914966418432   -7.45474902668820
H          -7.62267807864051  -14.19907207534198   -6.29815036891216
H          -7.15192666549157  -14.97281099071343   -2.30374474585619
H          -8.88983596228439  -15.42205922357273   -4.78441117844418
H          -6.22710004392565  -16.87146850927316   -2.74663514389176
H          -4.30651155099252  -21.83951368271719   -1.90192818592476
H          -5.62222943951347  -22.98494384238957   -2.30208844982375
H          -5.35938683513041  -21.41443311188988    0.31520659908035
H          -5.00410027456789  -23.13385463754921    0.11527894118639
H          -6.66123865672059  -22.55027343603039   -0.07632052584651
H          -9.77681875977906  -20.09911850527536   -4.03752275511624
H         -10.55875080426243  -16.47540243593466   -4.71516123489365
H         -11.63968707143565  -19.30236065497579   -4.38599861756640
H         -12.08576501210973  -14.62241526205453   -8.61679552373204
H         -14.29106131172885  -13.63153805820245   -8.15775706020658
H         -17.48042143823791  -13.75503336840392   -5.43366882676633
H         -15.82059982703892  -13.15472537807429   -5.18413781244566
H         -16.28865357013718  -14.76870541884000   -4.58460264078330
H         -16.97762108932559  -17.77962285086100   -4.20971745436936
H         -17.37023952375920  -16.54256780811608   -6.98576507947812
H         -18.65683887961197  -17.15209468569908   -5.83139232403026
