116
 SCF done       -228.421845801814          0.000689901452
C           1.97568701432104    2.61657710711314    7.63223214548373
C           3.22833610124094    2.75522372269605    8.16070097745375
F           3.66150258011368    3.95756310068278    8.55945965640707
C           4.07921299975594    1.63888787869935    8.29325824269431
F           5.30148827038849    1.80504735158974    8.81461491550019
C           3.66527495973825    0.39886392332734    7.89467843422411
C           2.38016512435162    0.22375521245446    7.34542537422668
C           1.51806104041297    1.35112551078153    7.21241301888959
C           0.22300207424602    1.19899739308882    6.66704266096387
C          -0.19830085557592   -0.04300222570161    6.26892806789916
C           0.67199517721071   -1.16087204871922    6.39903379765676
C           1.92880180414269   -1.04490856823278    6.91978055511244
C           0.00613129377639   -2.37010273463081    5.87873828822130
O           0.49534386520205   -3.47227134667215    5.76979631352473
C          -1.33787450684784   -1.92076234936221    5.42444754322372
C          -1.45920321511328   -0.49883554105672    5.69220852502573
C          -2.57860085017263    0.26994216741566    5.51246891542366
C          -3.82142192812633   -0.20446988758833    5.03994426267175
N          -4.86707941745165   -0.52132102092720    4.68821584042186
C          -2.64528836542030    1.64795840651165    5.80974184315475
N          -2.75647484399446    2.76959473537923    6.02555818693097
C          -2.21031638117339   -2.69002404842035    4.71238064348051
C          -2.16624216534594   -4.09920100759789    4.54652482081471
C          -2.65416066616204   -4.77141748875256    3.44551270256854
C          -2.43534263718306   -6.17094682482093    3.61631559606923
C          -1.80908241713553   -6.32667130992325    4.93783360611130
C          -1.64985805988353   -5.09146561587388    5.48259258367271
C          -1.37616942512952   -7.51868876674315    5.53456553975177
N          -0.97406798322364   -8.46444903011458    6.04642522979295
C          -2.73162871547707   -7.17918271208408    2.72516886113293
C          -2.58511955420266   -8.57580076999449    2.92892873722669
C          -2.88595220050328   -9.24454340391097    1.75566811830019
C          -3.27020646091617   -8.24784921376238    0.76541290700029
C          -3.20689218870860   -7.01751894379688    1.33917890596788
C          -3.51351916612567   -5.81818476433280    0.68630912329787
N          -3.76975553197843   -4.85427170678510    0.11673701445425
C          -2.79883706283540  -10.65482343747612    1.63042080053577
N          -2.64580416012402  -11.38889881802907    0.48539573719378
C          -2.56931334770584  -10.91771598936238   -0.87703963032482
C          -3.94321050680606  -10.91154588368715   -1.54331998708386
C          -2.49424639968100  -12.77150315119033    0.75668569006963
O          -2.28534839604045  -13.59681425250140   -0.10005767650431
C          -2.62136979076507  -12.85958752160022    2.19693243504666
C          -2.78670357389674  -11.55732509438290    2.70382378796506
C          -2.94988547212721  -11.66281018119185    4.14014770613051
O          -3.19305937501953  -10.84802476667505    4.99980107309301
N          -2.80216173858213  -13.04616358474350    4.40777051535737
C          -2.92642385209342  -13.51341615146241    5.76793405860114
C          -1.59577859278421  -13.42825453709058    6.51296595028019
C          -2.60290098683798  -13.76847571118444    3.26113600503266
C          -2.40633885341374  -15.16244689290258    3.08851529490111
C          -1.98744249261457  -16.06828745685570    4.00888784775353
C          -1.76492707285698  -17.44249954498088    3.73093320662392
S          -0.97006779677098  -18.40574097574699    4.95868005510899
C          -0.94349077625828  -19.83951230164825    3.96288642374944
C          -1.57457558115200  -19.57174146007463    2.75844926518100
C          -2.02726125277753  -18.23444165127139    2.62339549268220
C          -2.74178319710250  -18.06927726800541    1.34888611455637
O          -3.36654916347862  -17.11537898989888    0.96035522485671
C          -2.58413022751128  -19.38747518003532    0.61221644987378
C          -2.04138609951240  -20.37832412475980    1.62088399854770
O          -2.05045611037884  -21.58177773307934    1.51389466333129
C          -0.31154025786576  -21.02263869315002    4.44534036136508
C           0.28998548940957  -21.95287458290492    3.66100759309807
C           0.50055075368987  -21.72286155679618    2.27581884664107
C           0.56287392973547  -22.55071801315134    1.20036115097568
C           0.32940331932865  -21.89832659674938   -0.12344277253028
O           0.35130984911900  -20.70824966611758   -0.34729495651203
C          -0.03545116402656  -22.98579606525519   -1.04198764269401
C          -0.43610727681016  -22.90604103702269   -2.34500369606869
C          -0.78051104574258  -24.09144657521812   -3.03073531038821
C          -0.71911201856488  -25.33793307003565   -2.34222953529774
C          -1.07202666327092  -26.51735974993553   -3.02875961248932
C          -1.46206994005747  -26.46218336777324   -4.33744242901037
C          -1.51982184166665  -25.22876553581997   -5.01788401293955
C          -1.18716297430885  -24.06720229435213   -4.37916535618460
F          -1.90521051753571  -25.20506602594046   -6.30024336559869
F          -1.79385236862552  -27.58366263480725   -4.98898032746625
C          -0.30385851792165  -25.38759883348250   -0.99190038237061
C           0.04630912024329  -24.22815630994166   -0.35163615425848
C           0.53586628378336  -23.98568605150649    1.00468818807628
C           1.03238057334828  -24.95154801470720    1.83744589999037
C           1.70056372918171  -24.69596437751938    3.05053332380026
N           2.27673204166935  -24.54130637544635    4.03121937494655
C           1.01728664160300  -26.33269055082889    1.54448543131050
N           1.03155190765500  -27.46634826800010    1.36815157358892
H           1.33711142947001    3.48111481570920    7.53898310013549
H           4.32819865936304   -0.44537679617527    8.00199005922996
H          -0.40203581691833    2.07226626301104    6.57406054524955
H           2.56795487019070   -1.91043612588820    7.00666356443189
H          -3.00762605470418   -2.19505389901275    4.17006395487432
H          -3.10204274255567   -4.31955027070751    2.58152413375060
H          -1.24763441583399   -4.87822816047844    6.45312190268770
H          -2.28448330101613   -9.03067109678467    3.85124801268916
H          -3.60127751447392   -8.44235454194995   -0.23625677147878
H          -1.91984610921684  -11.61910542895382   -1.40960130259518
H          -2.10649139573485   -9.92880333366679   -0.89159859743023
H          -4.32690501630317  -11.92722716098262   -1.59702814192472
H          -3.86328354660463  -10.51662057526369   -2.55236142465250
H          -4.65308046371769  -10.30716304059249   -0.98223598814087
H          -3.32964798906686  -14.52794640093900    5.76330963086282
H          -3.64464167463573  -12.84913501104497    6.25865243634003
H          -0.81584095184249  -13.98735985349322    5.99985733109071
H          -1.71024826639396  -13.82289892801925    7.51869169748176
H          -1.28461460942205  -12.38897466700842    6.58111318630325
H          -2.57267106021863  -15.49039758902637    2.06969088344527
H          -1.72703608808907  -15.76739602435642    5.01297613234311
H          -1.83693628783702  -19.26678606471146   -0.17939380480296
H          -3.50741756250255  -19.72089197695621    0.13775537638919
H          -0.32832003718613  -21.16645784626894    5.51736841002225
H           0.62981721796055  -22.86781102799180    4.11948717043577
H           0.50443997529872  -20.67276829140398    1.98834590943363
H          -0.48660281934831  -21.95175341252974   -2.84695863418700
H          -1.03047767680795  -27.47009980643711   -2.52435862623639
H          -1.23691335882817  -23.13147028187278   -4.91367409816080
H          -0.28156933549621  -26.34447174008515   -0.49582469281942
