112
 SCF done       -218.383368891909          0.000373256027
C          -9.35556650112170    2.59450684458316    1.31375943741984
C         -10.60977755767743    2.78330944116528    0.80493695933537
F         -11.08829386497812    4.02228323644375    0.63598478074458
C         -11.41466009967068    1.68099202491296    0.45184048910270
F         -12.63966272660573    1.89658452813647   -0.04467212203164
C         -10.95339181797227    0.40450619259215    0.61214084976167
C          -9.66452707417517    0.17722448314687    1.13270351353671
C          -8.85027674723834    1.29069249465077    1.49193154036283
C          -7.55449854564346    1.08694266013860    2.01843713800722
C          -7.08762847528236   -0.19126608777001    2.18127525466928
C          -7.90437709787000   -1.29605168137492    1.81231873663885
C          -9.15955160565282   -1.13090279010557    1.30118312812654
C          -7.17209221255958   -2.55522171551591    2.04878878519385
O          -7.55338541777068   -3.67168353398317    1.77743934416432
C          -5.84450180683963   -2.14841514597300    2.58411159044867
C          -5.82117081674135   -0.70117462821051    2.69662130061377
C          -4.82796774193637    0.05284220738464    3.26374465843316
C          -4.86845046778245    1.45950513793198    3.36873337556356
N          -4.84448093242120    2.60177026274032    3.47684289758838
C          -3.65386214034117   -0.46534638196216    3.85184308718935
N          -2.69009904248744   -0.81374677777448    4.36906670839800
C          -4.78115039732039   -2.98736176217431    2.74576219689027
C          -4.80055196611047   -4.40612494912447    2.76291556978509
C          -3.73789716435623   -5.20420104545187    2.39200854781222
C          -4.10351049494129   -6.57373281464965    2.54908242124050
C          -5.47306603572288   -6.57076861607805    3.08440394148386
C          -5.88190145500218   -5.27987790803894    3.20352030832818
C          -6.27333050825196   -7.68716789331284    3.36329817089061
N          -6.97617929883499   -8.57136910500839    3.56941607871341
C          -3.33482049578508   -7.68233009047478    2.26722771550581
C          -3.64080730141837   -9.03700663569905    2.55444007017328
C          -2.63344214608688   -9.84960556133898    2.06360580474654
C          -1.63837089051188   -8.98822881576869    1.43764559383971
C          -2.03123601506762   -7.69553149449858    1.57834799627024
C          -1.31950107576079   -6.58990235548294    1.09875190902418
N          -0.71085278407303   -5.70733979322726    0.68672738532816
C          -2.63251151256285  -11.25895708912644    2.21519788097013
N          -1.90380988299872  -12.18788522959742    1.51346180666265
C          -1.04765571633600  -11.97739435061110    0.36901345646648
C          -1.81864267374719  -11.46289091591622   -0.84215397273265
C          -2.19130568088039  -13.50675404037590    1.93315298296382
O          -1.68378008358820  -14.49408564072911    1.44785996904985
C          -3.14974222050565  -13.33635439474606    3.00027768079286
C          -3.40877918389522  -11.96214892540111    3.14728464795579
C          -4.30710271039974  -11.80891200139298    4.27448665478097
O          -4.76801763919098  -10.83795504548485    4.82827138301418
N          -4.56205990279034  -13.13526240395344    4.70730622950965
C          -5.47657803702357  -13.34982389893295    5.80264768988333
C          -6.88199470790779  -13.68457833507013    5.30809774802977
C          -3.88031558346452  -14.05479429361387    3.95411813228626
C          -3.81799205514941  -15.46677804146300    4.04099034955046
C          -4.51683698287257  -16.32147027180493    4.83198003194186
C          -4.32584139268671  -17.72897879163136    4.82521654152725
S          -5.27489601182453  -18.72371444908358    5.90093951315418
C          -4.47329940344677  -20.16743903141949    5.38122704139569
C          -3.54308956059141  -19.87335526600647    4.37959317098110
C          -3.46305905734812  -18.50479171212816    4.07775332168215
C          -2.84232039199868  -20.83652520744155    3.62784337848179
N          -2.27859963036612  -21.57915730384655    2.96008816144260
C          -4.81408786863999  -21.42826558285697    5.94626193971255
C          -3.96538885980821  -22.48164594775849    6.02144640439274
C          -2.55934810067938  -22.38905631514108    5.82214797486277
C          -1.69423510022177  -23.37028911317454    5.46209095472699
C          -0.23249998340676  -23.19205366314790    5.68379905455008
O           0.32218974634135  -22.17590691042370    6.03100664410845
C           0.35868631832877  -24.52358638601092    5.45137135286129
C           1.65469026799545  -24.92340402584716    5.60809738438391
C           1.99504793036725  -26.26945140394373    5.34840107014254
C           0.97883737337511  -27.17984198167578    4.93570653765090
C           1.32366163732347  -28.52333842990263    4.68486562639882
C           2.61602890677634  -28.94204167567621    4.83356477731084
C           3.62051369396686  -28.04013579374703    5.23985356890513
C           3.31790251752768  -26.73150691512182    5.49218308482859
F           4.87827898697183  -28.47899936264135    5.37834901390768
F           2.94183254522948  -30.21852821684514    4.59466745312893
C          -0.35372743664842  -26.73600515324634    4.77599103182695
C          -0.65976300345658  -25.42396185227381    5.02322708013068
C          -1.91528973781743  -24.68605472996587    4.90224910753642
C          -3.02032947367065  -25.09615075352642    4.20631961849896
C          -4.11228905471213  -24.26589525661762    3.87442209610265
N          -5.01368002323042  -23.63954394999364    3.53949205402046
C          -3.15941806083760  -26.38703783453409    3.65235758590096
N          -3.33109842341343  -27.43108780447956    3.20852843764444
H          -8.75336585270860    3.44914398283759    1.57993116305615
H         -11.58096085333143   -0.42853680131572    0.33660442802202
H          -6.96103093208518    1.94970209334596    2.27424306008104
H          -9.75775254466503   -1.98744592960753    1.02971201279290
H          -3.79335860491132   -2.54924194460798    2.83238837758778
H          -2.79087491745880   -4.85799934762469    2.02512215392862
H          -6.82694405338953   -4.95115047235164    3.58804092288070
H          -4.51167490032629   -9.36683432480397    3.08459085144823
H          -0.72251063479400   -9.30532247381148    0.97793970093828
H          -0.62184778522991  -12.96019950543636    0.14408750172545
H          -0.22757898508888  -11.30494033503368    0.63306214561130
H          -2.60248501689342  -12.16694299485278   -1.11120579465975
H          -1.14322542916985  -11.35704507821411   -1.68646191453320
H          -2.27600667509182  -10.49677703813276   -0.63971794369816
H          -5.50900539425107  -12.40463720839863    6.35324016915393
H          -5.08020742277253  -14.12446151179668    6.46317171190798
H          -7.27921139432564  -12.84439207840901    4.74428069049176
H          -7.53563396301735  -13.87198810808364    6.15546016583623
H          -6.87815137691310  -14.56098925069673    4.66336221023201
H          -3.10015372348545  -15.88102352604168    3.34498916229809
H          -5.27141551965869  -15.96706074886376    5.51637001406406
H          -2.79862139315271  -18.11355199675551    3.32875800346679
H          -5.82751724090363  -21.53348694161222    6.30760534504553
H          -4.36041776495582  -23.44104085891142    6.32805864893115
H          -2.08955692051170  -21.44328414763914    6.08095567921371
H           2.41035253430570  -24.22097671593490    5.92527852537177
H           0.56818615290775  -29.22596304943511    4.36956704306023
H           4.09774395474177  -26.05357927233466    5.80195656786550
H          -1.10225739682352  -27.44820064860550    4.46742058141378
