127
 SCF done       -258.299917910242          0.000591706591
C          -5.26335944027959    0.38588223788564    2.15342999689504
C          -5.80508433531733    0.16832047996857    3.38922420383754
F          -5.92982566575375    1.17870647570307    4.25695370120498
C          -6.23820123396055   -1.11969518131793    3.76625302720696
F          -6.76324987242057   -1.30373772863651    4.98349601695316
C          -6.12406359009740   -2.17191209954139    2.90151378966357
C          -5.56901828182532   -1.98015173225145    1.62108442147100
C          -5.13086435033710   -0.67830088416163    1.23877544932497
C          -4.56992557462877   -0.46283817340134   -0.04015421010809
C          -4.44958575926997   -1.51644777433414   -0.90795595417215
C          -4.88284936580764   -2.81630970396035   -0.51655808899781
C          -5.43165018332384   -3.05216211875382    0.71212285210934
C          -4.61117325043274   -3.77590121609135   -1.60096322614838
O          -4.83233828788706   -4.96743734249259   -1.60492473373724
C          -3.93249354593216   -2.98406934072277   -2.66262198643394
C          -3.92577139279590   -1.58695914902631   -2.26570993816400
C          -3.58607416058345   -0.53246535827156   -3.06588194826551
C          -3.23298823446000   -0.67294069953902   -4.42606626398219
N          -2.98845506667765   -0.73836932950699   -5.54507575147401
C          -3.61248747309568    0.81596490724823   -2.65021250200088
N          -3.61596530152613    1.92482097724955   -2.35646002593054
C          -3.27304947671970   -3.56076685696663   -3.69568126718084
C          -3.38464709500219   -4.95228897937661   -4.01300026960131
C          -2.35173078750941   -5.86550569867427   -4.03710469583265
N          -1.00730820833831   -5.55778830492242   -3.76385689791691
O          -0.18278635043195   -6.44162944506612   -3.89088250750854
O          -0.75422763640376   -4.41363745936960   -3.41574975309666
C          -2.87608658676969   -7.18463731893729   -4.27998904453502
C          -4.22688828681251   -7.09197670629593   -4.36521369011046
C          -4.61563876240434   -5.71150654283131   -4.23181988762186
C          -5.86384569222765   -5.15775860430048   -4.41637051518648
C          -6.15303593467614   -3.82563537953251   -4.84874661551100
C          -7.48899469192551   -3.72515081056028   -5.07798258438396
C          -8.11959489007763   -4.97790093882753   -4.75499012282712
N          -9.52174216033269   -5.08908404855054   -4.69547657776221
O         -10.16874030341477   -4.12699309576388   -5.07076305246118
O         -10.01738898369207   -6.10842447466823   -4.24299164252458
C          -7.14693769270768   -5.88251771609229   -4.33923455182595
C          -7.24834814367744   -7.18135506288803   -3.78971409739051
C          -8.15586963741178   -8.12973465403630   -4.16134881802356
C          -8.31884059573992   -9.43005495250700   -3.64012344463602
N          -7.88712812984085   -9.97236291760348   -2.45255608982051
C          -7.26292839994534   -9.30299379742655   -1.33273735473338
C          -8.17962867878050   -8.25763877118037   -0.70606852607149
C          -8.28471075419132  -11.32165886926348   -2.31818998373898
O          -8.03736086120545  -12.00907807630745   -1.35268114482425
C          -8.99066616663614  -11.60869672225409   -3.54932343629236
C          -9.00432142268428  -10.44435702673388   -4.32733504033803
C          -9.66333673247170  -10.75747239117054   -5.57991361268473
O          -9.89198719060722  -10.10256245383963   -6.56819773608636
N         -10.03259122308560  -12.12538984183453   -5.44913165435284
C         -10.64139956924534  -12.80723328136620   -6.56657769245242
C          -9.63741375647934  -13.68590566647330   -7.30963822054015
C          -9.62749018010565  -12.64108716629093   -4.25015127800735
C          -9.72168888650739  -13.94893079130812   -3.71398089562924
C         -10.30175525107494  -15.06404928445164   -4.22178113572139
C         -10.20533590534219  -16.34630018694219   -3.60485639460275
S         -11.46685704309629  -17.49864424741992   -3.89039397279705
C         -10.74478516549908  -18.64092884340727   -2.81049670304267
C          -9.53663709832067  -18.17766685394991   -2.32724766736955
C          -9.22142880822728  -16.88013052073057   -2.78971513566023
C          -7.88213491078243  -16.25052977857285   -2.55277469080873
N          -7.37482273752163  -15.59576557802075   -3.79449257924640
O          -6.70393190220600  -14.60700334368168   -3.65555758019944
O          -7.62416835210165  -16.13200066183501   -4.84587633535123
C          -6.84495700992214  -17.32328705137525   -2.19911645789578
C          -7.37153478210526  -18.16908405232713   -1.05100380049933
C          -8.57782404335340  -18.99572659970454   -1.50307022973949
N          -9.24973347727390  -19.49652570784696   -0.27974749089614
O          -9.61104154135151  -18.67796035998715    0.53005644903645
O          -9.41047699366971  -20.68982922017902   -0.17414484369529
C         -11.42023753688977  -19.90790966051139   -2.65802638716598
C         -11.93826826719674  -20.52653940007599   -1.58101022468689
C         -12.37764879971423  -21.95463432618389   -1.74694801916808
O         -12.49916115866553  -22.53507966619714   -2.79742829589564
C         -12.56640815277591  -22.46486062263270   -0.38298643361119
C         -12.84077085066761  -23.74088590783377    0.02173627251702
C         -12.93721353205664  -24.01620261064082    1.40275665300755
C         -12.73403118100534  -22.96228239562644    2.34181824526142
C         -12.81759449606081  -23.24719392295307    3.71999091792454
C         -13.09430447502535  -24.51600158959852    4.14535286603736
C         -13.29832816022627  -25.55679424912128    3.21548715372111
C         -13.22128128390644  -25.31363581792164    1.87292610945101
F         -13.56807513454581  -26.78948546406415    3.66166320435448
F         -13.17521327821594  -24.78497847801347    5.45345628178926
C         -12.45604937081873  -21.65178544733744    1.89404952757901
C         -12.38529193070017  -21.40318340714309    0.54849911620515
C         -12.12754184651542  -20.16665928517254   -0.18080882748379
C         -12.21975028655067  -18.90751639165320    0.34283926194384
C         -12.09974486261204  -17.71265949070341   -0.39730276720982
N         -12.02901626329483  -16.71128419847643   -0.95253464676390
C         -12.52528874424337  -18.64153387544631    1.69786686629710
N         -12.78593145941900  -18.36994466435593    2.78047586125161
H          -4.93796860957836    1.37756003814074    1.88049412723593
H          -6.45980108795684   -3.15081143842600    3.20594164306246
H          -4.23937429452787    0.52991956922030   -0.30048412213397
H          -5.75327338201082   -4.04482586027360    0.98829365611652
H          -2.55892814124763   -2.98759057750607   -4.27589435174167
H          -2.26415863547258   -8.06220718455531   -4.36438008067128
H          -4.90061330185283   -7.88912746942508   -4.61356483007157
H          -5.41489103341541   -3.07308610502229   -5.04901926758301
H          -8.03128697016730   -2.86909964210978   -5.43304959322648
H          -6.48530740083904   -7.41407110738606   -3.06154030475114
H          -8.80493875372664   -7.93222556187258   -5.00362383007296
H          -6.31032623302747   -8.86216292869599   -1.63645862914823
H          -7.05295621321074  -10.09399405939009   -0.60604344594460
H          -8.46210455970079   -7.49545313010932   -1.42787712219543
H          -7.66853859661768   -7.77944004367292    0.12450469500494
H          -9.08458533713402   -8.73075713657913   -0.33280549058468
H         -10.99721942358993  -12.01775765280703   -7.23545044363688
H         -11.50492781828336  -13.38095192467709   -6.22201758916288
H          -8.84165593634882  -13.06867944112507   -7.71881427567917
H         -10.13463018397372  -14.19617845335308   -8.12962403413404
H          -9.19059996477259  -14.43005085553649   -6.65420376154055
H          -9.24760205964372  -14.00607529694175   -2.74342022392789
H         -10.90673230148038  -15.03115211778500   -5.11384399691470
H          -7.90512559583021  -15.48498941017517   -1.76954955594519
H          -5.90787732090151  -16.84468679251172   -1.91241719052758
H          -6.66244088708922  -17.95435134186951   -3.07298597736106
H          -7.68264158069240  -17.51678265821108   -0.23100148978872
H          -6.58884010475782  -18.83603665808353   -0.68678247294055
H          -8.26850490221400  -19.88622803821285   -2.06337912755654
H         -11.55997293343292  -20.45488950145938   -3.58980116247457
H         -12.97681192907240  -24.52874271554507   -0.70333581652190
H         -12.66704665900650  -22.46227688992352    4.44457869828001
H         -13.37864586557974  -26.12072553860719    1.17469113575825
H         -12.28963765633769  -20.87814133570444    2.62602393485242
