110
 SCF done       -214.047204545320          0.000645137233
C          -9.68126363329106    0.32122008605688    7.23824189268256
C         -10.73427201107387   -0.07453906475333    8.01410698890108
F         -11.19439209875617    0.72639825359269    8.98405594139625
C         -11.34889698907154   -1.32569110093074    7.80539448230878
F         -12.37985103778014   -1.68713258729717    8.58084563741456
C         -10.90188207889977   -2.16369944122433    6.82245276152379
C          -9.82036920693524   -1.78340024656125    6.00464331841521
C          -9.19676394085508   -0.51930162597185    6.21545455410730
C          -8.10826993383336   -0.11684585889148    5.40896195004285
C          -7.65879356706479   -0.95030780683351    4.41757737633515
C          -8.29831676387730   -2.20295421434434    4.20567945548987
C          -9.34496916304838   -2.62355352778029    4.97365231390523
C          -7.66005235344676   -2.89992870962100    3.07341023756801
O          -7.97761014487171   -3.98106024402295    2.62884691015420
C          -6.57401500388574   -1.99879534321724    2.61109417388626
C          -6.56763624084831   -0.81517109366118    3.45988503899898
C          -5.65023407134163    0.20319628552601    3.44533645126261
C          -5.64380682581661    1.26545396878292    4.37505730767879
N          -5.56799752908878    2.14505090529523    5.10870236652250
C          -4.55904858025567    0.34609458327422    2.56285234552118
N          -3.64194174756794    0.55811983173806    1.90221163467425
C          -5.61678395048916   -2.27577477084537    1.69326905472412
C          -5.37976639114288   -3.46913446126882    0.91228496661064
C          -4.00048321122176   -3.82307263721018    0.73663789389146
C          -3.64987056602375   -4.85522197017732   -0.09643417163743
C          -4.64557404341911   -5.60194183078988   -0.75331565974380
C          -6.01799564118624   -5.27068810651392   -0.55672762846461
C          -6.36314982177915   -4.19210253591170    0.27644495587700
N          -6.99146831409865   -5.96940147714549   -1.17999302877755
C          -6.61992304997961   -6.95304556672114   -1.95182557054413
C          -5.26024857076117   -7.28679861423833   -2.14006088025061
N          -4.29620499331534   -6.62848615473352   -1.55810235721981
C          -2.98457509996354   -3.05020950759883    1.44456359204033
C          -2.03268645318928   -2.28817757304208    0.84459941014372
C          -1.33170045609580   -1.52870135602836    1.84791290259552
O          -0.30056268935689   -0.69490158378829    1.62986519043324
C          -0.08899238376103   -0.25556299982852    0.30385198636937
C          -1.87090828003613   -1.81008931591013    3.09545999843750
C          -2.95200576075901   -2.74795278300319    2.88557893142841
C          -3.87704092966199   -3.18901922056423    3.79989009853733
C          -4.72890819263719   -4.33970200427076    3.70515254578932
C          -5.56190496156091   -4.33945677404053    4.78385821231739
O          -6.50537296612548   -5.19781359851040    5.17343049725942
C          -6.75972611125805   -6.30011031108558    4.32546752750903
C          -5.29405574333941   -3.14333367641254    5.58822167708977
C          -4.26782479952403   -2.48442131771213    5.02739503650255
C          -1.39825910121017   -1.39128510766270    4.38270027653085
C          -0.48120283972969   -0.43758298355336    4.61202178745158
C          -0.08043010862615   -0.04112467816705    5.94790328035419
C          -0.95334281006778    0.06138339878528    6.99387929561728
S          -0.21573108152220    0.60941028290632    8.44737197784610
C           1.29803757066326    0.70690667575759    7.68190248420363
C           1.24574864518978    0.33572857757535    6.36079739567100
C           2.47172656088405    0.24457049897198    5.58024421653962
O           3.57373526625668    0.57096705256418    5.94051054083757
O           2.23772508008392   -0.31114607102584    4.34860367985270
C           3.26143313438440   -0.63672943118764    3.55157758848333
C           3.00000382390330   -1.19982814501706    2.35505233544132
C           4.01467771483805   -1.59291803279720    1.45239222383885
C           3.84840899457754   -2.23526977762131    0.26342629867464
C           4.95008241103399   -2.22529511428970   -0.73630501869710
O           6.10734892165479   -1.93909364390828   -0.53839907443348
C           4.30930176143659   -2.57372571086101   -2.02185542520967
C           4.85034100896256   -2.57677878611591   -3.27469640601584
C           4.02763845642424   -2.89727614194019   -4.37779904726963
C           2.65394730084516   -3.20563283690122   -4.15773907173736
C           1.83476311470399   -3.51194712507187   -5.26304199184939
C           2.35554068604841   -3.51394635949127   -6.52642699598207
C           3.71497035008701   -3.21085808884511   -6.74276166957670
C           4.53495166668714   -2.90956977121183   -5.69163761053719
F           4.19733023953532   -3.21897403999699   -7.99227244288883
F           1.57492872807784   -3.80378058397669   -7.57539456133396
C           2.12461746157695   -3.20429683114086   -2.84690224337514
C           2.94215604459813   -2.89876251921427   -1.79143814447894
C           2.68572463928255   -2.83919738925557   -0.35224319525598
C           1.62432194995783   -3.43454540253989    0.27726901952520
C           1.48431793242430   -3.61347857766622    1.67129017005452
N           1.31630166065074   -3.85251080972082    2.78073155304255
C           0.55281244483471   -4.04272357673121   -0.40806958628711
N          -0.36353440145253   -4.52164787948125   -0.90738912621596
H          -9.22155411123588    1.28161921798104    7.41210758681329
H         -11.38345743755765   -3.11756473367047    6.67465189635850
H          -7.66015593602378    0.84564775543645    5.59450012079343
H          -9.80472634933439   -3.58332324657877    4.79401225001919
H          -4.85480607663723   -1.52119343372476    1.54481884260194
H          -2.61482336908885   -5.11625748937764   -0.25489767245646
H          -7.40522390089869   -3.93588063524745    0.36961727455243
H          -7.40658697390899   -7.50768537259323   -2.44568501426791
H          -4.96960848324880   -8.10893131180209   -2.78063684497241
H          -1.86394486730844   -2.23772960977391   -0.21462062639936
H           0.72314097494044    0.46866463506182    0.35368549705468
H          -0.98627633431963    0.22836869507330   -0.08961313581353
H           0.20025348974842   -1.07715096386981   -0.35931394089310
H          -4.65209029683377   -5.08964814026524    2.94399783931976
H          -7.53086923876887   -6.88812443713531    4.81886146919572
H          -5.85979995585343   -6.90616310696034    4.19164155974473
H          -7.11921782408360   -5.95637092188639    3.35174172678194
H          -5.85591099131137   -2.88286104041343    6.46520985261546
H          -3.87302263095239   -1.53447733592297    5.33129005582498
H          -1.79947735826992   -1.93696613708393    5.22520046904686
H          -0.01730501927574    0.07786465598498    3.78759042812453
H          -2.00843738016352   -0.12500007685920    6.98352639706828
H           2.17278672106564    1.01140758100779    8.22180239636680
H           4.26029053950230   -0.45131510306801    3.93517891619167
H           1.96133504524156   -1.33063853754637    2.09354552548604
H           5.03066386678885   -1.28913919729922    1.68029947453222
H           5.89145404823380   -2.33396362091477   -3.42288013050484
H           0.79303772724317   -3.75053546332959   -5.11542865887887
H           5.57299953970050   -2.67943318316615   -5.87359269981245
H           1.08009566098273   -3.43734341706555   -2.71438169015098
