116
 SCF done       -228.186204679116          0.000400344083
C          -2.90081605048139    3.81264252820787   -0.43618799097521
C          -2.03266427782473    4.51394529383990    0.35220725703535
F          -1.71132215275330    5.77670594582256    0.04259662442046
C          -1.46530798411388    3.92098989995512    1.49842501645560
F          -0.61776215135290    4.63295975226691    2.25314072693345
C          -1.77319526067345    2.63389367503499    1.83935167408042
C          -2.66442742928307    1.88440738896880    1.04685455959576
C          -3.24141277154998    2.48398040681785   -0.11043343383039
C          -4.14534268663356    1.75485137013595   -0.91517147834812
C          -4.46690395614351    0.46766256610646   -0.57019761184912
C          -3.87787514225386   -0.12682979912735    0.58060681719343
C          -2.99761476829936    0.55135195792897    1.37371534897286
C          -4.36500292443199   -1.51136250098460    0.73027501945943
O          -4.00267709880304   -2.32402894970745    1.54761802740910
C          -5.30043573832564   -1.72302568867341   -0.41487914933270
C          -5.37102918701782   -0.49630864933903   -1.18616432672410
C          -6.20380145914005   -0.25403097942550   -2.24540207963620
C          -6.26272361743172    0.97174231653458   -2.94185200556578
N          -6.34931487273065    1.94094075017616   -3.55030640595675
C          -7.12827726295602   -1.18318695553476   -2.76837913404475
N          -7.90848294994720   -1.88512136018665   -3.23365374313521
C          -5.84703024335120   -2.92427047834654   -0.72686500391298
C          -5.84660583628301   -4.05409212765935    0.14906102709157
S          -5.34260018577446   -5.58764055333566   -0.49335315431826
C          -5.48449163494418   -6.35003522809558    1.06099277645645
C          -5.95967359471412   -5.45594849044673    2.00399119793482
C          -6.19140296734180   -4.16586195795748    1.48005824556863
C          -6.94931377436976   -3.16252972347287    2.30112526841888
F          -6.72155804394961   -1.85334990982539    1.93450577196838
C          -6.63995915462784   -3.36106467885572    3.77963755977957
C          -7.05351691642833   -4.77243718140459    4.17156707352958
C          -6.19018327667736   -5.79953011727378    3.44378571453135
F          -6.79940821153821   -7.04438891079907    3.54266572973270
C          -5.09209942206083   -7.71347680701277    1.25721252166322
N          -5.35951648170774   -8.72752137676227    0.37053867293581
C          -6.13032114652616   -8.66992013617096   -0.84879674668411
C          -5.22905641188777   -8.59813504873618   -2.07840344225692
C          -4.85156890671320   -9.96128519746752    0.81854887762855
O          -4.99477533792751  -11.00146954895371    0.20442377487022
C          -4.20354109071152   -9.64901147392161    2.06692297966179
C          -4.37081536184939   -8.25779407387203    2.31161409995525
C          -3.65340365156035   -7.93858809701634    3.52610683270464
O          -3.48192456087954   -6.89311652768979    4.12489860707189
N          -3.10677592454737   -9.16076936538035    3.94295167901004
C          -2.36600786206935   -9.26995624534107    5.17597183124185
C          -3.21216385343099   -9.88055687403681    6.29008042530186
C          -3.42510039187259  -10.18843483739581    3.08631267222124
C          -2.97563026227170  -11.52376992890818    3.24229272385505
C          -3.41101212484409  -12.51825624885784    2.42934504122751
C          -2.95428934345591  -13.85675331016661    2.47135645078317
S          -1.63111739252131  -14.36964800329618    3.46873798188081
C          -1.64053752638484  -15.96279564298530    2.76338248162109
C          -2.68773902996050  -16.09794271858305    1.86801014223760
C          -3.42449398022456  -14.91178730839887    1.70222041505977
C          -4.59773524714638  -14.76671774577746    0.77490702051444
F          -5.69169348699814  -14.31673876760780    1.50176505677220
C          -4.99636572129438  -16.07512752281777    0.08770666800013
C          -3.79436710317898  -16.97679654928353   -0.15422808626571
C          -3.17845344563298  -17.34366485875860    1.19279539342100
F          -2.19556838401688  -18.29559483018351    1.01838784034844
C          -0.62546468825608  -16.86131699609630    3.21096968425257
C           0.17529684170998  -17.71075678529546    2.52384324401114
C           0.94116046312375  -18.73798023124968    3.29108253488701
O           1.08581839607619  -18.77825649176665    4.49005112138142
C           1.42848158179243  -19.69481117680878    2.28081103653431
C           2.08205862649296  -20.87913498635963    2.46735031568598
C           2.42641014947018  -21.65805509658624    1.34037885161252
C           2.07768161534829  -21.19500270638465    0.03810701887839
C           2.41571187066600  -21.98139995288576   -1.08189144590789
C           3.07194787574512  -23.16860488734035   -0.91731481964798
C           3.41823126002856  -23.62442294913124    0.37087941271655
C           3.10267833018760  -22.88620260652111    1.47685479068520
F           4.06098691648141  -24.79244264060519    0.50199564504548
F           3.39367856005888  -23.91365758067647   -1.98268856143869
C           1.40649010074744  -19.96202978560521   -0.12383801705020
C           1.09268318240556  -19.21717141344876    0.98205169881923
C           0.43610798183296  -17.92029529798400    1.11188502959021
C           0.28829048706758  -17.01129796198219    0.10094759901609
C          -0.17354268455800  -15.69101269675090    0.26381167584369
N          -0.51681034922218  -14.59675456939673    0.31739205008664
C           0.62470875642346  -17.26839712729037   -1.24524158144584
N           0.85909559505227  -17.41688319768868   -2.35885072949637
H          -3.32775962417216    4.28196992651646   -1.30871536429612
H          -1.33015477456847    2.19445053436122    2.71926915703142
H          -4.56071271340835    2.23349769584689   -1.78727930419493
H          -2.56600936527272    0.07764056725634    2.24219973347964
H          -6.25407377509879   -3.09343838927352   -1.71621095354573
H          -8.02684392109289   -3.31330520478293    2.11675078233059
H          -7.18794029172327   -2.62155280423149    4.36469334391774
H          -5.57060799533334   -3.21301645775877    3.93987245455268
H          -8.10036208486400   -4.94364859072344    3.90691537908405
H          -6.95011137038041   -4.91839939076635    5.24679735156671
H          -5.21285316479708   -5.90633448993892    3.94035019027141
H          -6.81012283915494   -7.81710592838095   -0.80854350277306
H          -6.71762060214931   -9.59236543158518   -0.89109898169585
H          -4.59092937500945   -7.71839222183007   -2.04236637545556
H          -5.83741972392311   -8.55277547414535   -2.97684403393066
H          -4.60277475238914   -9.48524711373740   -2.12352774627752
H          -2.07805909705295   -8.25030227325464    5.44655287906676
H          -1.45991023445386   -9.85898273859256    5.00832523519216
H          -4.09171842037518   -9.26646200081249    6.46683572950444
H          -2.63247423709269   -9.93153772098528    7.20751131663329
H          -3.53914388594411  -10.88336124542461    6.02465315714485
H          -2.26365098897596  -11.74262455934316    4.02663080724490
H          -4.14972230728260  -12.29111996868034    1.67296319178055
H          -4.38932241133128  -13.97336101645440    0.04385599001638
H          -5.49933491174840  -15.85303250216583   -0.85313849348416
H          -5.71114042388283  -16.58769077893296    0.73658754385347
H          -3.04724671972168  -16.46586066535878   -0.76586746496938
H          -4.09975082775979  -17.88764406553041   -0.67076895188347
H          -3.92973181151071  -17.83100794678317    1.83453227415605
H          -0.45035995824699  -16.85497235087577    4.28494940237138
H           2.33028443834806  -21.21852517786867    3.46144104500555
H           2.16065547347413  -21.64572777505700   -2.07488617622705
H           3.37410165326783  -23.24929243543059    2.45569993482742
H           1.14488720962981  -19.64222543251666   -1.11953393813599
