114
 SCF done       -233.909355325465          0.000687682737
C         -10.83158409144396   -6.02278173215081    6.29709123081746
C         -12.01800343758494   -6.62363488851429    5.98430988583597
F         -12.89675160734537   -6.92272881136518    6.94921106047557
C         -12.33253376213001   -6.93600741429276    4.64568862966616
F         -13.50302063784382   -7.52479205124654    4.36892518926931
C         -11.45570138311491   -6.64306414458038    3.63906408631223
C         -10.22399992708508   -6.02349630982195    3.92811330655127
C          -9.90503465401463   -5.70800732818504    5.28181375922843
C          -8.67557448203979   -5.08890859996656    5.59590855036478
C          -7.79591826332739   -4.79311517408008    4.58636043343447
C          -8.12496766915664   -5.09947903078805    3.23596767752362
C          -9.30324719615521   -5.70471033531194    2.90515497418952
C          -7.03528445655914   -4.65523942332515    2.34668451822515
O          -6.92787877381986   -4.86038943898946    1.16359335996326
C          -6.08398576199149   -3.91780693907592    3.24075077135003
C          -6.48191354597481   -4.17151879335176    4.61762712664722
C          -5.70409547088960   -4.00236473194535    5.72888475790789
C          -6.08511679770909   -4.41585777279928    7.02502123361699
N          -6.30989049620294   -4.76317864499233    8.09514082693851
C          -4.38307629456493   -3.51319496860266    5.74399246970481
N          -3.29172836537087   -3.17081564693114    5.86078390724744
C          -5.04339492977718   -3.17551945308174    2.82458555249515
C          -4.66355335707023   -3.05105630065036    1.42553585207562
C          -5.53737411224800   -2.60095986792107    0.44245700998358
C          -6.93688199303378   -2.11962014425444    0.54585486635906
O          -7.62367038686921   -1.98832683162080    1.52017123162442
O          -7.34701169456490   -1.78954141494241   -0.69625027460611
C          -6.33449693339000   -2.01601353761094   -1.66353364466893
C          -5.15642162495168   -2.51156525930743   -0.88963539005276
C          -3.87655081590291   -2.85407032571058   -1.28991338091948
C          -2.98085116909256   -3.26516803645433   -0.31911107776238
C          -3.35426334484871   -3.36861119869674    1.02446567096901
C          -2.42914400654889   -3.82246475999041    2.05316721002071
N          -1.18859603305712   -3.28400619329055    2.22808767237448
C          -0.57387526622710   -2.24302394600899    1.44995860655902
C          -0.56692467772839   -3.76738886196047    3.41292750586485
O           0.51625170803421   -3.38848698610087    3.79374978629614
C          -1.51963752389865   -4.71521521874045    3.93299457384909
C          -2.64928003190655   -4.74169703002423    3.07272693879073
C          -3.57466902282671   -5.71533531571718    3.61783983635136
O          -4.65987240806103   -6.11696231657263    3.24992643210947
N          -2.95851240916283   -6.17074219757893    4.80173564890749
C          -3.61461078151271   -7.15832414462895    5.61734125107592
C          -1.74860117118251   -5.56019162310148    5.01407606404977
C          -0.88449650879535   -5.63361010420105    6.13738472339239
C          -1.03478341274822   -6.37283397686797    7.26251463246557
C          -0.09175892621616   -6.36928679717641    8.33513660782737
C           0.41982303953757   -7.51376742324983    8.92043543039264
N           0.11465158446455   -8.84217696419140    8.57514402191436
O           0.67665047736788   -9.72627350857142    9.19388186113747
O          -0.69773582264696   -9.03770900341577    7.68204468997544
C           1.43827814483981   -7.16144915409866    9.87886948060505
C           1.49932378377942   -5.81299389623596    9.95438553898746
C           0.50512606540708   -5.23817632199587    9.07270955826499
C           0.06459385627206   -3.93685789849421    9.09013809783488
C          -0.74720944901862   -3.25465043820556    8.11803191791737
C          -0.64980157776714   -1.92295063235329    8.33842676670175
C           0.15093776695642   -1.68599215228079    9.51482123495398
N           0.35839165285297   -0.36276888742248    9.95773662872281
O           1.29037705494130   -0.12741815960138   10.71211260764035
O          -0.39015314132186    0.48811974409528    9.52276322619941
C           0.51538068769838   -2.90630898649764   10.07057143234050
C           0.90296698427685   -3.25371978257007   11.38720704719417
C           1.35305802342080   -2.42768437443139   12.37309575104539
C           1.54237939691993   -2.87454064390534   13.70212141394665
C           1.61936604032048   -2.07956776388595   14.80507763597750
C           2.19491180252204   -2.59214184828601   16.07959058157455
O           2.42997102864635   -3.74544503059465   16.35302061357879
C           2.46171089374914   -1.38751731751285   16.89046255403387
C           3.07510580229558   -1.29388629522469   18.10681741377967
C           3.23284409399774   -0.02198357976538   18.70079463098008
C           2.76029270792169    1.13430735247677   18.01378428381478
C           2.92318884967593    2.40052030368347   18.61096141679427
C           3.52237622749227    2.51307176763876   19.83411533670274
C           3.98804735084973    1.36868709946641   20.51327333241768
C           3.84768222023483    0.12720026090129   19.95936403406106
F           4.57162388663905    1.50939050517313   21.71034152408693
F           3.67323556427301    3.71581030149185   20.40192730340063
C           2.12812671940301    1.00717340243685   16.75579889237914
C           1.97155635068269   -0.23712355794917   16.20599594778990
C           1.31910414590970   -0.67286916603034   14.97373143632574
C           0.40502975222822    0.05053580429591   14.25491406349827
C          -0.43707465206008   -0.50473681823737   13.26740635885536
N          -1.18943256893243   -0.92715887268008   12.51089374203679
C           0.10686339958596    1.40574429110656   14.51310754513099
N          -0.15930167208291    2.50717401395766   14.69130256733518
H         -10.60546370811272   -5.79192132128752    7.32640507090345
H         -11.71251758954090   -6.88818020488572    2.62046798125164
H          -8.46324941145262   -4.85110837474890    6.62639948731329
H          -9.53289256101075   -5.93092487169998    1.87526781310802
H          -4.41056648889041   -2.66865502051405    3.54271106189297
H          -6.13841023523822   -1.07682993006041   -2.19251150341576
H          -6.69577934133928   -2.75679534411405   -2.38564833483943
H          -3.58207890614267   -2.80345107679427   -2.32619784547706
H          -1.98187139826079   -3.55177269379969   -0.60890808685807
H          -1.31065123550124   -1.49851545324819    1.14939095051921
H          -0.08456730675018   -2.64887052464464    0.56201537804161
H           0.18772533156851   -1.78059593836574    2.07902717078495
H          -4.51750597267743   -7.45573637576248    5.08093172803283
H          -3.90096084310498   -6.74239838465139    6.58628470431469
H          -2.98080329686829   -8.03485356577353    5.75771588665197
H          -0.00357085461527   -5.01199261591366    6.02883204964730
H          -1.81628050623575   -7.11280191192228    7.33851757872869
H           2.03590432474874   -7.88494938549601   10.39948121025258
H           2.20427730403537   -5.24544280806023   10.52818450455799
H          -1.29448743833151   -3.70688500869974    7.31795615516202
H          -1.09535096906980   -1.13385672654014    7.76313739879423
H           0.69596420817243   -4.27993860882859   11.66444390176939
H           1.59114408940719   -1.39731690885685   12.14918065853609
H           1.69114834039516   -3.93620334734577   13.87382821704735
H           3.43183790235271   -2.17914001769095   18.61089862613994
H           2.56916112150671    3.28593343904735   18.10648854661813
H           4.20917348781606   -0.73852084684003   20.49184309769700
H           1.78774339675492    1.89865148475660   16.25383703323273
