102
 SCF done       -227.222970295800          0.000649559395
C         -10.50038299091354    0.10529682071916   -5.01512259683600
C         -10.83175157562475   -0.16051069468034   -6.31394130871387
F         -11.58732430846598    0.69949953572307   -7.00488317294052
C         -10.38383968130212   -1.34166435918893   -6.94253295754480
F         -10.72411992875722   -1.57336064046293   -8.21488344161459
C          -9.61142115608541   -2.24095280553043   -6.26231755642287
C          -9.25442093027354   -1.99642047008979   -4.92154407542599
C          -9.70607369365450   -0.80255146896471   -4.28521537671287
C          -9.36330558235978   -0.53716027871324   -2.94116383043107
C          -8.59785455707506   -1.44050636428396   -2.24821083605740
C          -8.15192104703724   -2.63033728178375   -2.89167808902909
C          -8.46095908551247   -2.90889004622963   -4.19365872493949
C          -7.35388294339473   -3.43275146676813   -1.95369110302203
O          -6.74977813664349   -4.45419742736475   -2.18705979284318
C          -7.36303001979832   -2.66651915996517   -0.66419504925215
C          -8.11703776777563   -1.43295019330109   -0.87251908167552
C          -8.37147650789669   -0.47182982338921    0.06287820311904
C          -9.13004774921541    0.69474757515622   -0.18539081935592
N          -9.73220162010483    1.66056024104386   -0.32693267691196
C          -7.92828535230378   -0.50530570570588    1.40465598974568
N          -7.61174158887745   -0.47004208184047    2.50658033752587
C          -6.69095255455973   -3.05675834450610    0.43486880693725
C          -6.07809959769885   -4.37520052788491    0.55563129103264
C          -4.73548491029001   -4.51091813606558    0.91010384552447
F          -4.00870750480997   -3.40920770856961    1.11471610919622
C          -4.13919479025872   -5.75900293834475    0.99732785394175
F          -2.83818955163524   -5.85917146708540    1.28200702478335
C          -4.87045496258329   -6.92230923638275    0.75581540977263
C          -6.22262065878489   -6.78858589793420    0.43701291873743
C          -6.81499953222465   -5.54203388611728    0.33750912603764
F          -8.11983426961397   -5.45365936305391    0.06255096413475
F          -6.95388764693398   -7.89368810909521    0.23509931046791
C          -4.25184848503079   -8.23827769433494    0.86347328774490
C          -3.65969817080902   -8.77164518505307    1.97750418400513
N          -3.53354952489599   -8.16067386407457    3.25250787201454
O          -2.80688937802671   -8.70529032003752    4.05586587893867
O          -4.17915993556219   -7.15171454535097    3.46320837268447
C          -3.22016418677085  -10.12278239847174    1.69620535360103
C          -3.59524815395146  -10.43488633341110    0.43939642074744
C          -4.24615826687702   -9.28007562712748   -0.16159913034126
C          -4.65088918620321   -9.13744198920628   -1.46344240912861
C          -4.76533251176378   -7.90923913058753   -2.20165313524290
C          -4.82227431062736   -8.20381952544779   -3.52378398617960
C          -4.85559047031551   -9.63834387968688   -3.68741890863394
N          -4.95486307144344  -10.26168135788351   -4.94803964204174
O          -5.12073546905948  -11.46840971244961   -4.98954722891334
O          -4.87034419159099   -9.54616149058880   -5.92751978745537
C          -4.80388914095071  -10.24198579312236   -2.44990683827133
C          -4.94779754653038  -11.62203669234979   -2.16667665497590
C          -5.48652331673380  -12.12509904407304   -1.03090960483211
C          -5.61356203425837  -13.53194970779833   -0.76749011247775
C          -6.67199568144181  -14.06464979088348   -0.07330719915178
S          -6.65528572392891  -15.77266140607064   -0.02932913711189
C          -5.19936085159785  -15.81682388605552   -0.92290392121741
C          -4.73997641635938  -14.56964652967111   -1.24174382295365
C          -3.42800970543100  -14.41719145323332   -1.88541005531628
O          -2.93071036656606  -15.20445973210370   -2.64323264486889
O          -2.77690737188616  -13.29471926643147   -1.44771312760255
C          -1.53888837222567  -13.05598710123613   -1.94566845343858
C          -0.78333026833504  -12.04014282189413   -1.50614234522722
C           0.54961080041274  -11.78275883855690   -1.95372101055524
C           1.17543579461445  -12.12258971787058   -3.10640246883903
C           2.67193976594332  -12.08661200831398   -3.13454170178964
O           3.39137081636083  -11.54352231110955   -2.33221256261323
C           3.05575023995207  -12.90238723692238   -4.30114013869614
C           4.29976235623185  -13.30904612706567   -4.69059989882982
C           4.42614551264774  -14.13469431987765   -5.82952617720731
C           3.25546446979079  -14.53011856396164   -6.54101100384049
C           3.38822565191185  -15.36813767512536   -7.66663650543880
C           4.62423881134341  -15.78991080951231   -8.06908235051137
C           5.78168452826620  -15.39424885195728   -7.36740540344052
C           5.68614599857115  -14.58369192359966   -6.27125276330211
F           6.97911059001580  -15.82306407400796   -7.78471386196128
F           4.74904327856323  -16.58674969922864   -9.13679087452462
C           1.98172582655441  -14.08400066360765   -6.12142671634598
C           1.88429559782430  -13.27358250015303   -5.02145283756255
C           0.72750108519101  -12.65205550303354   -4.38268929053391
C          -0.46909067618186  -12.40287653638848   -4.99874487425414
C          -1.47899256257850  -11.61102425970471   -4.42325559938478
N          -2.30685024251084  -10.95050716766629   -3.98062630685058
C          -0.78302173792217  -12.84468191318408   -6.30275878925365
N          -1.06793185033592  -13.19233060096662   -7.35759892453738
H         -10.85174260188340    1.01290137301805   -4.54962233313466
H          -9.27711344829064   -3.13928185665344   -6.75718511430662
H          -9.71626765924452    0.37644455116067   -2.49107797392029
H          -8.10864145912433   -3.81776311277549   -4.65714372765065
H          -6.55816566285825   -2.39722964645572    1.28218340798233
H          -2.69184221490067  -10.72858530295283    2.40681834852613
H          -3.38453321790678  -11.34435889712858   -0.08486994100535
H          -4.69679552441272   -6.92467455360294   -1.78390428614613
H          -4.84446757033552   -7.51447843978123   -4.34678001271385
H          -4.69168802616672  -12.28801073881971   -2.98153297517482
H          -5.94043065838312  -11.46131968389597   -0.30654459761875
H          -7.48373029868593  -13.52508865971365    0.37357366618670
H          -4.72379359824149  -16.75075961440369   -1.14946430809634
H          -1.19618769339387  -13.77918899227520   -2.67769057418444
H          -1.15567712561033  -11.41107758080592   -0.71046603610933
H           1.19106654698328  -11.28966633244453   -1.22879587531735
H           5.17452344347100  -13.00810155516298   -4.13463876934160
H           2.51347073615855  -15.67667954762799   -8.21739362783594
H           6.58079469072769  -14.29043835161682   -5.74469545701123
H           1.11188159799211  -14.40530376630165   -6.67176967829884
