104
 SCF done       -216.020246572612          0.000575831114
C           1.90507343593107    0.75818497501523   -1.39435984885246
C           3.25886219758228    0.58366935420213   -1.32756948510942
F           4.07868061744945    1.63790317748865   -1.41384808600492
C           3.80966949425898   -0.70469800126001   -1.16835576160207
F           5.13959246953164   -0.84546784021572   -1.10657715778428
C           2.99813357647377   -1.80075382877154   -1.07990605327378
C           1.59880960825391   -1.65395847559629   -1.14780242521439
C           1.04032035987198   -0.35166876367157   -1.30554001208821
C          -0.36055018736252   -0.17924754801814   -1.37253200572540
C          -1.17975399427028   -1.27495584750461   -1.28225671089753
C          -0.61227658093960   -2.57156380147004   -1.12997757945783
C           0.73748166412446   -2.76952797705939   -1.06766295171248
C          -1.68579109159882   -3.57355051036140   -1.07812585116963
O          -1.56536164410885   -4.77655649372504   -1.16378342057470
C          -2.96111848908556   -2.79588455794879   -1.10239464240768
C          -2.63385746172758   -1.39461096730258   -1.30618972102613
C          -3.52072475295752   -0.36110511093209   -1.43866697200525
C          -4.92569793915576   -0.49696284170751   -1.43619544309451
N          -6.07264946741097   -0.53923188083764   -1.44383976781249
C          -3.14455717281381    0.98949008720916   -1.60607705147498
N          -2.90239073192495    2.10135655193831   -1.75308351214327
C          -4.18729189364322   -3.37120092653632   -1.03209781842107
C          -4.37966450477737   -4.69833952523047   -0.54211973090985
S          -5.57252959834927   -5.78682048012815   -1.21544268520639
C          -5.16335845805536   -7.06735614351928   -0.09206467340940
C          -4.22223988921111   -6.61230665928260    0.79597682813912
C          -3.76143611591552   -5.30341249855935    0.52422809964404
C          -2.73255361055664   -4.95145265783898    1.51953333728249
O          -2.09198173468825   -3.94090921891357    1.65996366314782
N          -2.63933627279295   -6.08050689043532    2.31796709590941
C          -3.48313160273661   -7.13296043062026    1.95815131990375
O          -3.54351592079585   -8.19137567356444    2.52185155873966
C          -5.79434816704776   -8.35136750753475   -0.19611004393986
C          -6.53625943453944   -8.96912920370598    0.77022140743639
C          -7.19725431852150  -10.10648765068023    0.19759730597018
O          -7.92378969373617  -10.85995006368481    1.01606968931235
C          -8.64497895961840  -11.98871357566595    0.56641974712322
C          -6.85769275329359  -10.19829276849575   -1.15991553578610
C          -5.96079563660577   -9.08929076444135   -1.44310806975019
C          -5.34639318099855   -8.72936373894306   -2.61969794484132
C          -4.12431869538197   -7.99423637574384   -2.73554318919865
C          -3.86078361803065   -7.81644427744843   -4.06309218049703
O          -2.82681639913465   -7.24768148786742   -4.67472876011366
C          -1.77812289372452   -6.76435467745954   -3.85850633736717
C          -4.96853925088152   -8.38374194953476   -4.84341718527706
C          -5.82743615280055   -8.96083322237595   -3.99044020869679
C          -7.14975464880934  -11.27165642893640   -2.04587132965769
C          -6.35122916730570  -11.69549694921110   -3.06193818824112
C          -6.70988162260630  -12.72896994546413   -3.95508539483813
S          -5.59272343772501  -13.16656721865558   -5.22580111004162
C          -6.64065796343726  -14.42020422374051   -5.87186559991725
C          -7.80444843858272  -14.44786311329998   -5.12856411330719
C          -7.85106040244129  -13.51344216494134   -4.06871928323404
C          -9.13961058021993  -13.65790833527054   -3.38929784935270
O          -9.60564888866591  -13.09192473174890   -2.42707572512620
N          -9.80479070034120  -14.64546580878807   -4.10592151232646
C          -9.09134016740312  -15.15988169061804   -5.17434114452566
O          -9.50164539242221  -15.99787300711754   -5.94002021282294
C          -6.22699388394016  -15.11257942629629   -7.03209678632799
C          -6.63486026437457  -16.30099324162947   -7.55532874658353
C          -6.35038858687169  -16.56010860877583   -9.00064705347225
O          -5.59558607773799  -15.93490350944470   -9.70724481469730
C          -7.22448821044130  -17.68906718075488   -9.36903637103468
C          -7.46665480670354  -18.22191106425319  -10.60262144957913
C          -8.39624049651913  -19.27937082386624  -10.72186992630051
C          -9.06039212928094  -19.76224686887351   -9.55658315717098
C          -9.99761120645066  -20.80682885380604   -9.68605564081445
C         -10.26205024614448  -21.34759907635810  -10.91301180040077
C          -9.60350935871667  -20.87055304849401  -12.06410247579936
C          -8.68938036847235  -19.85871683181080  -11.97191857919427
F          -9.88345784147696  -21.41843581701209  -13.25464843237003
F         -11.15375117393282  -22.33996688504817  -11.03392145998270
C          -8.78053377920290  -19.19768366116357   -8.29095091091718
C          -7.87074642611639  -18.17955453086122   -8.19892758619774
C          -7.39619258759153  -17.41816516609036   -7.04716281931455
C          -7.48562723245065  -17.82723666110671   -5.74351238968071
C          -6.87536767094901  -17.15415198418619   -4.66982404583220
N          -6.39301797835952  -16.63360311752882   -3.76682673592971
C          -8.15609149681496  -18.99658927169517   -5.32899115289144
N          -8.68314583151656  -19.93605385662104   -4.93373474399099
H           1.50067470251946    1.75104161775635   -1.51506539522707
H           3.43485340852377   -2.77959871949529   -0.95829281134319
H          -0.75046356828616    0.81840165459797   -1.49380161139062
H           1.13991591651206   -3.76408076132389   -0.95075457994926
H          -5.07743343231546   -2.82869672210643   -1.32134334790501
H          -2.00060790254576   -6.14335668126084    3.09830178949317
H          -6.65548470563742   -8.65971863265665    1.79031428657923
H          -9.11055900857054  -12.40506961186441    1.45880242345406
H          -7.97930767231797  -12.73343170016648    0.12347362643248
H          -9.42079465330413  -11.71828042562636   -0.15219391038895
H          -3.48247852677165   -7.74635030981313   -1.91326036357410
H          -1.06515932802128   -6.28954492597438   -4.52935070301037
H          -1.29146509368705   -7.58673678971807   -3.32760381388078
H          -2.13768975996219   -6.03804104401789   -3.12497914415866
H          -5.03190143848587   -8.31730368107947   -5.91205376900616
H          -6.77002018669461   -9.41539882985563   -4.22374642501575
H          -8.07278324723342  -11.80795814482176   -1.89219103952018
H          -5.37765493339249  -11.25345806446677   -3.21787986449447
H         -10.73560356489863  -14.95745081730285   -3.86831646458603
H          -5.50751708723119  -14.58005000126529   -7.64968715161954
H          -6.96249991951096  -17.83813611434254  -11.47650664274181
H         -10.50882173888645  -21.18486439200019   -8.81457429450655
H          -8.19486372941208  -19.50416608642795  -12.86269398469245
H          -9.30683062105759  -19.56911904412341   -7.42663949704435
