108
 SCF done       -216.745734430698          0.000400126314
C           1.78421277593201    2.32486780154899    3.39650337007648
C           3.06692086904529    2.48577144010710    3.83977287805601
F           3.51212232275402    3.69981243101364    4.18631033503457
C           3.93659669707501    1.38046648888581    3.93816826653518
F           5.18810906848652    1.56828544381276    4.37609857591142
C           3.51078127859199    0.12889035789879    3.59170857004401
C           2.19436748359849   -0.06928142565987    3.13171368679350
C           1.31416641515564    1.04733303173042    3.03045163599404
C          -0.01026228171829    0.87288784465705    2.56839610495843
C          -0.44080429891159   -0.37945974659464    2.21510272054320
C           0.44350704554230   -1.48856347962890    2.32537775815647
C           1.72675662140910   -1.35206005969577    2.77119391786825
C          -0.25432230384593   -2.72041999541121    1.91245836608346
O           0.18435298215695   -3.84867625526991    1.95940568174237
C          -1.62804563821075   -2.29314000626307    1.53407344247298
C          -1.72268884906398   -0.85442935018508    1.70312402436916
C          -2.79180957957385   -0.06600669950273    1.36984844859526
C          -3.99047221014354   -0.53368842549036    0.78904250125904
N          -4.98080610328810   -0.83855992802911    0.29542433757340
C          -2.82136844433264    1.33494788943414    1.53688102998517
N          -2.90326957853642    2.47354230630871    1.65473884593925
C          -2.64736537192800   -3.15722812330575    1.26284556145345
C          -2.50929954647886   -4.54270559412193    0.97965912154235
C          -3.43671806396169   -5.51406722035069    1.29468782500139
C          -2.92143001950634   -6.79016729547377    0.91772569905620
C          -1.63208514130412   -6.52868734062177    0.26292678486562
C          -1.39490575267546   -5.18980937878873    0.30349960205600
C          -0.79230185387181   -7.47291277534938   -0.33716705097616
N          -0.09289107511757   -8.23415294205811   -0.83933742259811
C          -3.47856072027566   -8.02818456100259    1.15462636334989
C          -2.90347254504776   -9.29223774421430    0.87196898212197
C          -3.74584560125766  -10.28753006263331    1.32619062843525
C          -4.92189235398839   -9.64964170843574    1.90287960839916
C          -4.77619747461425   -8.30437795446357    1.80938590060939
C          -5.70470819965407   -7.35977259875838    2.26147383163648
N          -6.48525738503451   -6.60971423381732    2.64520667649027
C          -3.51196051533282  -11.67931340296589    1.30003088425695
C          -2.39083865211021  -12.32263572925668    0.78953734366664
C          -2.45265204449527  -13.69233870367059    0.99293387918605
C          -3.63292832650598  -14.11894844157251    1.66186889619439
S          -4.66846088545718  -12.79471566587056    2.02235663884413
C          -3.52457798374228  -15.49431415134654    1.82971748375278
C          -2.27891080151472  -15.88110237563149    1.26360734075356
N          -1.65366421969019  -14.77669815283807    0.75115454087638
C          -1.99779619398432  -17.23198822687204    1.39861217085700
C          -3.01605387159995  -17.90470754713419    2.06579899376996
S          -4.35003839028977  -16.84101597284843    2.50862256773953
C          -3.07815536829305  -19.25909612122096    2.45704471097386
C          -2.06211768715408  -20.15482589290717    2.30173587942569
C          -2.07249999826802  -21.48602617879785    2.77002320294761
C          -0.99213371527343  -22.34774294356745    2.74293110450915
C          -1.34061851779200  -23.56375053870624    3.38196836092376
C          -2.75989581779510  -23.42351497094530    3.77694679922448
C          -3.18006286565339  -22.18673679901103    3.41424087474763
C          -3.55767980223917  -24.39359714166449    4.39547840534024
N          -4.24664761374921  -25.16828077528340    4.88961282837577
C          -0.51520357159594  -24.62920672610967    3.66478103857355
C          -0.81801361801170  -25.78040009878348    4.44976676417260
C           0.33760632407130  -26.50206891156039    4.65245084955588
C           1.40694915963832  -25.85249481339768    3.91032974685906
C           0.90434798929197  -24.74533223415790    3.30140135613256
C           1.63118906663912  -23.89400703872026    2.46253809117357
N           2.25380031885345  -23.21825471367093    1.77272462793778
C           0.46924258358532  -27.68256033352312    5.43174208989247
C           1.58968395627163  -28.13293427051186    6.05694215077549
C           1.70377700308180  -29.55878942853206    6.47492132919987
O           0.81269178262117  -30.37245477534390    6.52496702491173
C           3.14134771894468  -29.76378123683116    6.75035572088544
C           3.79786537692893  -30.92012775659787    7.05933549411121
C           5.19527763160185  -30.88307524992948    7.26502436972009
C           5.88874073708194  -29.64399926343840    7.13943773968793
C           7.28338760635742  -29.61517177983130    7.34096626699952
C           7.95738467876801  -30.76160200559666    7.65555964848726
C           7.27056127042915  -31.98634486760473    7.78064789767974
C           5.91856810362767  -32.04727449808180    7.58982499747721
F           7.95734448417933  -33.09402686647808    8.08850340746076
F           9.28190164950738  -30.73231154705709    7.84847874031007
C           5.18202852962955  -28.46132511900054    6.82352194213089
C           3.82643892373591  -28.51949155327012    6.63860843479340
C           2.84615384116009  -27.47600014237328    6.35171292889727
C           3.02495328283790  -26.13454358309507    6.56750557519435
C           1.97665207418072  -25.18950576373289    6.57277634021723
N           1.15854554445814  -24.38994107403217    6.66820476093216
C           4.26371942359666  -25.55798071525686    6.91700759530169
N           5.25532021970732  -25.04456825075220    7.18172967911735
H           1.13249014001896    3.18172918998627    3.32637713385823
H           4.18787545348954   -0.70698057738808    3.67291988040509
H          -0.65271220276868    1.73644723180204    2.50939734878338
H           2.37555206651650   -2.21159994858452    2.84522564378884
H          -3.66686787669576   -2.79282827882019    1.30481392253379
H          -4.36601243982668   -5.35253535309089    1.80608384959076
H          -0.55842454357703   -4.68445192113386   -0.13784494576869
H          -1.95250526605317   -9.43370593460176    0.40074755181689
H          -5.75414005429439  -10.17952099626437    2.32876807551676
H          -1.58471793940071  -11.79959756254570    0.31039148028129
H          -0.75262774136373  -14.75814205236726    0.30537544091828
H          -1.10646198988049  -17.71181033948158    1.04090878002711
H          -3.99029635892519  -19.56625499573760    2.94913219355202
H          -1.14403906656228  -19.83757752920485    1.82665867131573
H          -0.02424522714256  -22.12243579606300    2.34043916585012
H          -4.16606104982679  -21.78856407145628    3.56415670702776
H          -1.77488462162217  -25.99610286868437    4.88319496109286
H           2.40944019829959  -26.22822061612498    3.81337497192695
H          -0.40188062982496  -28.32662067174111    5.49600582914462
H           3.25821399221471  -31.85076042069717    7.14699902982268
H           7.82367123904017  -28.68556968459745    7.25262944629947
H           5.40778776667405  -32.99218886103740    7.68937940471393
H           5.73179416297516  -27.53852372356193    6.72727933300670
