128
 SCF done       -247.164813248913          0.000651928215
C          -5.70316983725901    0.43413803225713   -5.49675481762633
C          -6.28471468576673    0.39165428359254   -6.73289390445463
F          -6.47211343178737    1.51895944549866   -7.42760673377339
C          -6.69373712377546   -0.83695038546297   -7.29191899774108
F          -7.25978630257703   -0.84817399151451   -8.50427914776168
C          -6.51530681392024   -2.00587551230753   -6.60648537103967
C          -5.91785229508042   -1.99530636415921   -5.33084864719412
C          -5.50448463172421   -0.75370376752726   -4.76419694400171
C          -4.90147242039798   -0.71931369461393   -3.48687021930170
C          -4.71502776358115   -1.88992842912579   -2.79861637083881
C          -5.12502366126449   -3.12812744723919   -3.37499720139860
C          -5.71432271864456   -3.19001449401364   -4.60590178818767
C          -4.77747982533884   -4.23196989858925   -2.46512059629103
O          -4.96796326548594   -5.41794317108511   -2.60887856861176
C          -4.07458096787248   -3.58982322943777   -1.32201637867171
C          -4.13016171939842   -2.14713478554006   -1.48866535927326
C          -3.76993256110725   -1.21873470426584   -0.55434281582025
C          -3.33192662584927   -1.56262483663587    0.74346757845501
N          -3.01805285961324   -1.80926670036235    1.81907403094716
C          -3.84847834115431    0.17673109268967   -0.75202143007510
N          -3.89427770956719    1.31670680750411   -0.86852982664349
C          -3.37529577582145   -4.32605039702832   -0.43320367233687
C          -3.38848243486092   -5.76851509929300   -0.43965439204047
C          -2.32434842279777   -6.54505938480256   -0.82317642956390
N          -1.09944908450430   -6.01934544919701   -1.26677812479571
O          -0.20144912131771   -6.79250580567710   -1.53081574848598
O          -1.02034334671739   -4.80053727432156   -1.35191813748335
C          -2.68947441684111   -7.94285010958699   -0.77039923780652
C          -3.98406565218862   -8.02086643168974   -0.38721077224625
C          -4.49595822646623   -6.69066674070079   -0.15451223893530
C          -5.71891297749530   -6.30767149496574    0.34370782234985
C          -6.00563444753735   -5.05647791023035    0.98136269396399
C          -7.25997603672414   -5.10699458613881    1.49683954851864
C          -7.84608425115165   -6.38374232477257    1.19069873675822
N          -9.20110525916498   -6.61921330140031    1.48959247658726
O          -9.83880088737107   -5.68128978064563    1.93311996210799
O          -9.68102567161148   -7.72550266747592    1.29008926102869
C          -6.92855730677889   -7.14951852806243    0.46489774077898
C          -7.04212957169409   -8.38696689857213   -0.20418870665592
C          -7.83074144042914   -9.44474500650403    0.16302045057394
C          -7.89856819136807  -10.63380046519944   -0.58196633414518
N          -8.68625076634537  -11.70256737819074   -0.23615618470783
C          -9.60801147355869  -11.77252429382341    0.87641091985272
C         -10.86825924252059  -10.94735744724456    0.63314563188359
C          -8.56459829110105  -12.76353375130753   -1.14314818808580
O          -9.15123195235071  -13.82137241327693   -1.03348878987274
C          -7.61202032951931  -12.28738459643024   -2.13233634002891
C          -7.21919553083343  -10.99489262332582   -1.76405203951961
C          -6.24917357670985  -10.52355383076627   -2.74050016650426
O          -5.62270707357941   -9.48914327314940   -2.81787099978654
N          -6.14729153751323  -11.57479689955040   -3.66264871082663
C          -5.24326548631934  -11.49874209954354   -4.78862652445342
C          -3.95728702020060  -12.28004918968265   -4.53774870102014
C          -6.94327746600596  -12.64044085520867   -3.32610917610745
C          -7.03453534733163  -13.80932247557880   -4.09425036632324
C          -7.82138017685090  -14.87127342281255   -3.71941468038553
C          -7.97233040729924  -16.10873416935238   -4.36853529946497
C          -7.24660178918558  -16.76986128090279   -5.37783795806840
N          -6.22711584693959  -16.32516591899549   -6.23888201755207
O          -6.06620780363847  -15.12756485143304   -6.42344107381092
O          -5.55076670442667  -17.18349751777655   -6.77851432995504
C          -7.66149997524008  -18.13549025694099   -5.43460972352294
C          -8.60604181232446  -18.36126278322442   -4.47815287979794
C          -8.87588279621541  -17.12813282287959   -3.80597331524941
C          -9.90463877047504  -16.91295481393548   -2.90630746176224
C         -10.70422442212069  -15.73913782302453   -2.78756504134873
C         -11.79917400608179  -16.02975464043211   -2.02885299511787
C         -11.69660466827343  -17.38232688059146   -1.55955030525716
N         -12.63891595946942  -17.95791768819457   -0.68726564257213
O         -13.60004066711573  -17.27811531146510   -0.37748947281677
O         -12.45331141335050  -19.10048641591615   -0.29937239076851
C         -10.52900234417445  -17.95011301663700   -2.05101766488416
C          -9.95754334370627  -19.18878910645530   -1.67273366977243
C          -8.62728085101342  -19.46210634580315   -1.70938719060190
C          -8.01506491093486  -20.70842173252986   -1.32507582092419
C          -8.71099000446140  -21.63923568860266   -0.52924970907419
C          -8.06367246159541  -22.77873102713639   -0.12247522721990
C          -6.73357836171293  -23.02587694497945   -0.48456291341549
C          -6.32608581826647  -24.32267439601556    0.11122096761662
O          -5.27146131197154  -24.89937583663233    0.03833250342609
N          -7.44260727795006  -24.77667053121256    0.79544934536340
C          -8.52803179854492  -23.91429949093605    0.71503328463401
O          -9.60021574249274  -24.10150444368629    1.22685321317962
C          -7.46311325868799  -26.01046221008121    1.55287040679189
C          -6.96848590054953  -25.79094538930431    2.97800585355597
C          -6.03735101608017  -22.13993733183889   -1.27268892317662
C          -6.67483484954727  -20.97357947301756   -1.70857743490619
C          -5.95683543115057  -20.07905079798138   -2.61563284373551
C          -4.65176376723734  -19.84212293932405   -2.55505719865630
H          -5.39656454826873    1.38240213135742   -5.08373591780625
H          -6.83271150007653   -2.93726385197992   -7.04851073938349
H          -4.59124728467091    0.23235465090051   -3.08589089910948
H          -6.01549996443787   -4.13921440644801   -5.02223874697976
H          -2.70098665836245   -3.85352800180345    0.27190712619332
H          -2.01446212739410   -8.74225548059090   -1.00765145916943
H          -4.52959754227084   -8.92296414075794   -0.19792959321577
H          -5.30181207164176   -4.25599119894085    1.10264915303012
H          -7.77260576284817   -4.34396305549205    2.05178273508793
H          -6.42036152243446   -8.48780377569564   -1.08569371321827
H          -8.41901998501830   -9.38984773909898    1.06406558269777
H          -9.10292199558244  -11.44546370126172    1.78879586269459
H          -9.86980901378476  -12.82951062598230    0.97768209495529
H         -10.64500582876253   -9.88480452824240    0.58645975417068
H         -11.56827643415367  -11.11514760935531    1.44632903976701
H         -11.34123439609281  -11.25175154067146   -0.29745488964092
H          -5.01137957399343  -10.43837309614733   -4.91835104848310
H          -5.74621520155220  -11.86737726378937   -5.68561669328852
H          -3.45040664284896  -11.89863453623091   -3.65451352314680
H          -3.29625719561120  -12.17123686348078   -5.39218928519071
H          -4.16527390225983  -13.33750525491248   -4.39558876919783
H          -6.47370376956257  -13.85270153137247   -5.01473310508364
H          -8.38394271308368  -14.77110134955286   -2.80012411410400
H          -7.27142002934244  -18.84046660900682   -6.14482454976501
H          -9.15138466235604  -19.27215574543911   -4.32441310620925
H         -10.53934852702029  -14.82680521968042   -3.32535579201858
H         -12.62401086935947  -15.38302520367767   -1.79646101155575
H         -10.65358994975505  -19.91070251870009   -1.26629676014828
H          -7.94901221577292  -18.67600842682493   -2.01035050869438
H          -9.72319405861433  -21.45143043607091   -0.20842366026633
H          -6.82032608267976  -26.72532978512481    1.03352174948617
H          -8.49439237514147  -26.37083079829048    1.55796628332452
H          -5.94610324391314  -25.42016126044946    2.96787662327979
H          -6.99442357919726  -26.72963965864815    3.52373974185789
H          -7.60261005742138  -25.07072668806712    3.48988275577452
H          -5.02403807760902  -22.35502012840107   -1.57326391797245
H          -6.54666819168505  -19.60637772886777   -3.38925093997255
H          -4.02491263619405  -20.26665950763590   -1.78896333565555
H          -4.16805096090622  -19.19004168157508   -3.26148656788567
