119
 SCF done       -234.197809594682          0.000538235337
C          -2.57929708345267    1.23012476579602    6.14272431680886
C          -1.69258029755596    2.15456379823435    5.66657005172510
F          -1.22262298410699    3.11532488585654    6.47319637758986
C          -1.26189599351709    2.11124207954739    4.32519831652920
F          -0.39253005927379    3.03150455039678    3.88530076037310
C          -1.72458113129460    1.14367781276307    3.47823980145754
C          -2.64045863777432    0.17752901939276    3.93848431769305
C          -3.07539486643374    0.21895850437748    5.29510892042856
C          -3.99042471548339   -0.74285618723255    5.78065443232358
C          -4.45388422733559   -1.71767303125909    4.93633883856260
C          -4.01908479421283   -1.74731366201924    3.58247633838818
C          -3.13947140310602   -0.82997169283800    3.08383185370100
C          -4.65513207626989   -2.87710697853462    2.88081310656789
O          -4.57430353566133   -3.12135097129833    1.69705934434493
C          -5.50638799352760   -3.54808896219313    3.90224021379617
C          -5.37208852492746   -2.83101397074304    5.15420489138437
C          -5.93340170026726   -3.17806122052687    6.35539337054892
C          -6.76429757853013   -4.29825288407092    6.56857921676284
N          -7.43865718066967   -5.19271569584326    6.82014215426569
C          -5.74065096414100   -2.45952568055176    7.55402625940643
N          -5.63050611819827   -1.91119209331730    8.55650071433352
C          -6.38724638254667   -4.55477623512911    3.63580037607168
C          -6.34806419025715   -5.37501787753207    2.48377342928999
S          -7.81698868978103   -6.08385324918754    1.83638773926452
C          -6.97755638341742   -6.88773974380625    0.53674662190779
C          -5.60886813032021   -6.63364351596091    0.63967610676313
C          -5.27333883107483   -5.79834394519875    1.73052115669314
C          -3.81239041064921   -5.71107812011566    1.88212863107483
O          -3.18164407570867   -5.30373938045771    2.82334613659461
C          -3.24213565109936   -6.34279565822058    0.62521548500548
C          -4.40181368995754   -7.03000507557185   -0.07644166764811
O          -4.29397171591204   -7.75897980646675   -1.03939663484709
C          -7.73168166930089   -7.63012523843967   -0.40034039477716
C          -7.18131294103702   -8.27352047200094   -1.45824648348314
N          -7.87052092155146   -9.02002019770170   -2.34215132559719
C          -7.27709651100142   -9.53164497807476   -3.55229016008319
C          -8.22116518076821  -10.67405078508123   -4.06766446305832
N          -8.69611776797701  -10.41093221540578   -5.41026724032743
C          -7.59912216680032  -10.16245877433585   -6.32836789941854
C          -6.67126207338043   -9.00619932971291   -5.81639205404460
C          -6.62935231918058   -7.90276928643107   -6.86807370999886
S          -6.87043140847391   -8.72938068074682   -8.46696519575011
C          -8.12802278059319   -9.80027972545787   -7.71229949543696
N          -7.12415923055492   -8.48120127921431   -4.53894962360069
N          -9.30918945607909  -10.75341434138751   -3.12636359118410
S          -9.56731221545588   -9.23106073107181   -2.39263182560958
C         -10.22765507869788  -11.75483833907304   -3.12887687258888
C         -10.17535501355489  -12.82562581203896   -3.94981759822263
C         -11.07544263577663  -13.91530094907830   -3.90327272946710
S         -12.54553019099710  -13.87394533591055   -2.97834569408169
C         -10.93810533062191  -15.12628236657824   -4.58033801278734
C          -9.78833359814704  -15.45971045974300   -5.43926381207383
O          -8.84550353543058  -14.71151417135094   -5.65333098694172
C          -9.89590369865054  -16.78827347737266   -6.01827366936850
C          -9.02222091275302  -17.44874084863375   -6.85457758004146
N          -9.53419237235667  -18.66961936979865   -7.13980418599951
C          -8.87441147748812  -19.68227805757396   -7.92512096773630
C          -7.95524270223963  -20.53706497683735   -7.05491396804326
C         -10.71613241566144  -18.82517089713988   -6.49975716865760
C         -10.98742101272229  -17.67472630362813   -5.79021144074501
C         -12.12094682390982  -17.36298626466187   -4.93891450099586
O         -13.04532058958072  -18.12762606113697   -4.72880038462934
C         -12.02427221447180  -16.00776963915785   -4.35257747941141
C         -12.98844167863296  -15.48537723815568   -3.49955831040840
C         -14.23138297406764  -16.07182437477799   -3.17029389434581
C         -15.06760578356536  -15.78748019460714   -2.13420010221765
C         -16.51205742030603  -16.13242457329955   -2.23749724102451
O         -17.03559082495240  -16.85326329834832   -3.05280409349312
C         -17.17103209300008  -15.34160574210543   -1.17466243883266
C         -18.50332060520753  -15.20193128042325   -0.91453320238617
C         -18.91171773402554  -14.36175759364716    0.14568687388449
C         -17.92642236898124  -13.67725739623031    0.91510517915267
C         -18.34213827641952  -12.83521624089603    1.96617275996555
C         -19.67180532345319  -12.68208642866817    2.24173565099780
C         -20.64493887993527  -13.36054080074264    1.48108580215970
C         -20.27420501579421  -14.18355969636634    0.45501797259213
F         -21.94199798293477  -13.18971942522095    1.77245891612809
F         -20.06438244047469  -11.88075135710453    3.24135041897120
C         -16.55275276505763  -13.84745577467468    0.62694156233052
C         -16.18074277998965  -14.67251550845577   -0.40031497262990
C         -14.86482740318066  -15.06563663353191   -0.89745254741787
C         -13.69438029398350  -14.99526820740240   -0.18768646161885
C         -12.50958696387765  -15.65407945496858   -0.57817272196189
N         -11.54062911760283  -16.21317143416701   -0.83512075736448
C         -13.56592940109802  -14.32854119460802    1.04638046187056
N         -13.40847839826325  -13.77077322181688    2.03749073510510
H          -2.89708354440566    1.27658915935884    7.17266040956646
H          -1.38511302634612    1.12385208339135    2.45447666153687
H          -4.30303933036904   -0.68149162858743    6.81045934604194
H          -2.82518972649929   -0.87682540932452    2.05232021970617
H          -7.19515351523983   -4.75349420636759    4.32886306346319
H          -2.41939646826044   -7.02739567980141    0.83671275913565
H          -2.84572993023509   -5.55388506278453   -0.01973067216358
H          -8.80168428439346   -7.67118147983535   -0.24329053687553
H          -6.11564449987458   -8.22626043689037   -1.64575858671883
H          -6.27630619315104   -9.91781540123638   -3.32339197218454
H          -7.69415843753215  -11.63614940020044   -4.08013624937581
H          -9.34685686683100   -9.62783313710228   -5.40539048430856
H          -7.02470758679351  -11.09267334708953   -6.38761850947993
H          -5.66079054779996   -9.39586481195848   -5.65460458011778
H          -5.68308567486938   -7.37070592194899   -6.88157480182160
H          -7.44122836899468   -7.18685921305261   -6.72334609679642
H          -8.27991094054105  -10.67060600957229   -8.34321362926778
H          -9.06271397313303   -9.23969543199489   -7.64382382379268
H          -8.00063247428220   -7.97459787045378   -4.64940855755247
H         -10.99859267914200  -11.64859275032056   -2.37701453359464
H          -9.39443815762361  -12.91780982759251   -4.68883676246881
H          -8.08565487598782  -17.11579973347217   -7.25591646726506
H          -8.29499459116057  -19.19066127413211   -8.71095107060572
H          -9.63686298416742  -20.30999873342917   -8.39306813808024
H          -7.19048525449668  -19.91936483489273   -6.59046785683817
H          -7.47017698076630  -21.29647181401524   -7.66130093208548
H          -8.52581720089190  -21.02795686218539   -6.27038586298587
H         -11.29699313818500  -19.72226304565693   -6.58224388193830
H         -14.59892564388152  -16.80387241432528   -3.88520399611809
H         -19.23635220201272  -15.72556544058340   -1.50907260295852
H         -17.61030599280602  -12.31153659637909    2.56115134101911
H         -21.03093855704135  -14.69615039831365   -0.11797619603721
H         -15.82736356570105  -13.31332441040576    1.21993294834164
