124
 SCF done       -246.371072337071          0.000886802939
C          -4.69979692282553   -4.52749628624739    5.61421828157482
C          -5.14927048084226   -5.25452259924618    6.68089077626039
F          -5.04153305134983   -4.76703293628305    7.92086868106103
C          -5.73080735931098   -6.52528845996020    6.48966195024016
F          -6.16100244839257   -7.21524303096824    7.55158313747843
C          -5.85498753052690   -7.05035817774461    5.23391462050768
C          -5.40061403654522   -6.32578719755641    4.11456685031536
C          -4.81246059273447   -5.04084633215661    4.30648557512279
C          -4.34356372172283   -4.29921472103387    3.19876534965412
C          -4.45689350337669   -4.82702327350506    1.93927242089944
C          -5.04377006600888   -6.11320881324690    1.75508456313074
C          -5.50780321386629   -6.84996523904649    2.80827859297991
C          -5.00626942453866   -6.47040828605964    0.32949129552085
O          -5.43578883660744   -7.47954317868394   -0.19312481157035
C          -4.26962806258201   -5.36567970748485   -0.33348657990649
C          -4.05376932243728   -4.30589950123280    0.64021058100230
C          -3.63134271620217   -3.03969960078208    0.35634853717906
C          -3.39802752932932   -2.58867799679974   -0.96184408282635
N          -3.24814757493499   -2.18271508733652   -2.02402481421780
C          -3.44768280056861   -2.03214592233737    1.32782146934562
N          -3.28568396178972   -1.18721265280097    2.08626492175082
C          -3.71165967531096   -5.50651347749501   -1.55592534774635
C          -3.98125712695529   -6.65185763516458   -2.38733970092800
C          -3.09882942590485   -7.67448638528304   -2.64360274150349
N          -1.78635548533822   -7.70729048568898   -2.14292069619906
O          -1.06715496117228   -8.62980321646383   -2.46749506215562
O          -1.45729092126830   -6.79193138773062   -1.39936945847387
C          -3.75971714247405   -8.71547687686557   -3.39618810884612
C          -5.05408607606021   -8.35639986394806   -3.55491737193870
C          -5.26021261346176   -7.05340175864896   -2.95671453091990
C          -6.37788301179242   -6.25396224381047   -3.04040270102993
C          -6.41000362037623   -4.82564314670981   -3.06600467567664
C          -7.63233728709389   -4.42991803806876   -3.52406917259068
C          -8.45618296665089   -5.58729658286796   -3.72121275309577
N          -9.81794518402958   -5.52114435058202   -4.07151236865209
O         -10.26387158800430   -4.43018214751203   -4.37737972620755
O         -10.47112629624054   -6.55070668530012   -4.04089400548269
C          -7.73278629535916   -6.72655794795757   -3.38492417028603
C          -8.18214356200257   -8.05057098513796   -3.22127310490167
C          -7.66429097228274   -8.86329368685546   -2.24689330418695
C          -8.04909699194589  -10.20175171501690   -2.06599128696518
N          -7.79859141661621  -10.92425512815003   -0.92658436746286
C          -7.27080774379454  -10.40279427629184    0.31259946853195
C          -8.32210942190159   -9.59025425341289    1.06399476685181
C          -8.24713922066119  -12.24870535149277   -1.03323207400802
O          -8.16858262466520  -13.06283830572236   -0.13706314192351
C          -8.77419939905559  -12.34149790704375   -2.38510087006877
C          -8.66031549643713  -11.07613569774304   -2.97946151944128
C          -9.10151377379893  -11.17891403372525   -4.35977654063315
O          -9.15659591062172  -10.36677245813504   -5.25342752334119
N          -9.46116854619256  -12.53440736801108   -4.50267197007885
C         -10.01560547326267  -13.03380802422337   -5.73949554806561
C         -11.52830339783146  -13.21253732790482   -5.64872817375689
C          -9.27131362146898  -13.24447480133726   -3.34611740916515
C          -9.47621811285226  -14.63063629311817   -3.22051640298656
C          -9.34088516275534  -15.28291123725088   -2.02579817730678
C          -9.43859985443331  -16.68074539181857   -1.86082055715657
C          -9.50375331260593  -17.67313955187729   -2.82209022820480
C          -9.48069445575112  -18.94363521866552   -2.18356567982587
C          -9.45668990744341  -18.67426797361975   -0.73111693659577
C          -9.41514191815140  -17.33079954355462   -0.55429653582625
C          -9.49117554388728  -19.62576114900954    0.29613355071485
N          -9.53770705836229  -20.38096654069290    1.15956870755473
C          -9.37591570654506  -20.17525627247754   -2.78775485428707
C          -9.16738156320966  -21.43573404726881   -2.15196165419808
C          -8.86290807427101  -22.37380639779304   -3.10999836999238
C          -8.97183681144080  -21.73662088983812   -4.41622326773136
C          -9.30295240133884  -20.43121990504565   -4.23625423460711
C          -9.53723260360055  -19.50707311449674   -5.25985100273317
N          -9.73499788932392  -18.76362917943510   -6.11306696071087
C          -8.49912005000800  -23.72878756783487   -2.87549508465861
C          -7.68131984609755  -24.50155743224755   -3.63565671900003
C          -7.69389295343814  -25.98729054097464   -3.49199752311719
O          -8.21396230326012  -26.62123101310972   -2.60636930142445
C          -6.98992443154685  -26.49345329109124   -4.68712902912084
C          -6.81363303427514  -27.78515827448000   -5.09304285515008
C          -6.10992037907241  -28.03881257541525   -6.29142373706722
C          -5.60820540065158  -26.94352107827746   -7.05382801142935
C          -4.91082565440935  -27.20340374706865   -8.25072398144470
C          -4.71691910916007  -28.49000148883710   -8.66890462291767
C          -5.21194411384925  -29.57273511405165   -7.91317303570772
C          -5.89420719528990  -29.35325336805372   -6.74932585905046
F          -5.00746852582894  -30.82187574334415   -8.34770728470842
F          -4.05300453533666  -28.73549402430623   -9.80421665379306
C          -5.80188632336573  -25.61670557938105   -6.60709357985495
C          -6.47583823658162  -25.39491988194958   -5.43553657492314
C          -6.77413284779064  -24.16166307371737   -4.71340530076284
C          -6.12455071035036  -22.96632276749430   -4.87641537294764
C          -6.20700395958046  -21.88794129605190   -3.96956857650510
N          -6.17158518289729  -21.00904520865475   -3.23185113065160
C          -5.20753488824061  -22.71193553375402   -5.91831710361391
N          -4.47127078872986  -22.45353107454478   -6.75960056635053
H          -4.25749775613053   -3.55736630361736    5.77846684491890
H          -6.29986947113418   -8.02483677997102    5.10653841705832
H          -3.89180729556213   -3.33573581325504    3.37294701512164
H          -5.94171264105834   -7.82519118787902    2.64757459233511
H          -2.97484409566163   -4.79816748249515   -1.91496491636013
H          -3.26703538188843   -9.60341507341623   -3.74211573235741
H          -5.79958050882520   -8.88015576478848   -4.12041981112367
H          -5.56586293221913   -4.19048165362372   -2.87454688765770
H          -7.96583089476486   -3.42654803627107   -3.71215951734745
H          -9.02366154020178   -8.37853853204959   -3.81904782956909
H          -6.95836829111042   -8.45053099148351   -1.53909474527366
H          -6.38864621521781   -9.79141964633361    0.10739894752761
H          -6.97718080874497  -11.27274715058260    0.90608884829072
H          -8.60676947139583   -8.70785598609885    0.49543296397079
H          -7.92716850078977   -9.27273816198360    2.02457318813025
H          -9.20880187155381  -10.19470206115060    1.24052860975781
H          -9.52749170983865  -13.97488820079320   -6.00670942176696
H          -9.77771215537295  -12.28533510256618   -6.50008962072866
H         -11.79237088202364  -13.92519916353676   -4.87042142486993
H         -11.90995054044481  -13.57603084629794   -6.59826876012163
H         -12.00401843908612  -12.26086228798101   -5.42501648732999
H          -9.74099445762882  -15.18770464903550   -4.10743514137785
H          -9.12699677916111  -14.70694332302618   -1.13466504610103
H          -9.51353449305492  -17.53297843762983   -3.88446473963031
H          -9.37687864904009  -16.80400256890707    0.38109869482198
H          -9.15410212662047  -21.59537445903007   -1.09179938605490
H          -8.86347699593719  -22.24113600116952   -5.35928250033854
H          -8.95020566147617  -24.21577912613511   -2.01674139343425
H          -7.20383443280189  -28.60245112337212   -4.50594367511153
H          -4.52214918823479  -26.38680710532881   -8.83892150339411
H          -6.26605624993505  -30.19234232834501   -6.18248027853830
H          -5.41762831190686  -24.80670972104421   -7.20642691829988
