130
 SCF done       -248.010786031446          0.000709929493
C           4.44319022414994   -1.84179524473745   10.08169581887100
C           5.52313152060362   -2.32058532213899   10.76857113292928
F           6.60777248467443   -1.55605275068956   10.93500954964319
C           5.51000578887719   -3.62300512223237   11.31053777321393
F           6.58159608631425   -4.06393179751846   11.97859736119411
C           4.41621473528002   -4.42827196892780   11.15723477979364
C           3.28770493750254   -3.96402121747592   10.45384108997748
C           3.29917106594940   -2.64719933216838    9.90577429720693
C           2.17964691324912   -2.16129287884935    9.19532302490035
C           1.08160841656588   -2.96827985676370    9.03439090530972
C           1.08169046849565   -4.28447784260195    9.57878710665816
C           2.14791253038199   -4.77799679728726   10.27516494258110
C          -0.18764980809927   -4.95724417146468    9.25259556299860
O          -0.55924140427659   -6.04403751136969    9.62860335450802
C          -0.93643563244715   -3.99120495798116    8.39422678534807
C          -0.18073476225143   -2.74024095061538    8.34688682705514
C          -0.59144536482850   -1.56050792854422    7.79143165760382
C           0.15648515390437   -0.36100158738624    7.82365213665808
N           0.69270693445858    0.65233445614323    7.83520408776632
C          -1.81759023734278   -1.35629434005640    7.12824934864812
N          -2.79823498706169   -1.11888642820458    6.57676337141934
C          -2.09508274961586   -4.24694834287204    7.76144888282369
C          -2.78511738013210   -5.55724123061936    7.72304888218543
C          -2.37559681926034   -6.17751970838397    6.36042428271715
O          -1.31614210920792   -6.64758994860665    6.09481426476901
O          -3.39285603327618   -6.08332420977732    5.50510383645273
C          -4.52561338545649   -5.43108601265415    6.06353768323497
C          -4.31140479547213   -5.48506682560514    7.59378133161156
C          -4.99603079041389   -4.35193881472486    8.36658913968189
C          -6.13011704947496   -3.75310673981773    7.54204399268500
C          -5.55508094564660   -3.06935777064362    6.30498649150130
C          -4.64107288028451   -4.01015433384940    5.48180464872882
O          -5.17748398063665   -4.08144647647445    4.16941326344239
C          -6.23949370552399   -3.28976698075460    3.98796279559874
O          -6.77905498005446   -3.15105311328947    2.93326800008590
C          -6.64515152731395   -2.63699250079951    5.31087009775957
C          -6.83866301957899   -1.16394440770084    5.23816494496259
N          -5.93722783903585   -0.26384513757384    4.73734409723045
C          -4.72329340991752   -0.53976816564632    4.00762022177724
C          -4.94951631560633   -0.44860801505802    2.50085582370901
C          -6.39271467775607    1.06705664547336    4.88747526026922
O          -5.75661335992127    2.03129093665508    4.50585394689373
C          -7.67145806414859    0.93240480067724    5.54237580409160
C          -7.90639864841945   -0.47184511787035    5.73953309671226
C          -9.19626418664010   -0.62999795567985    6.36585174480834
O          -9.80652631835128   -1.60518935238093    6.74584272582616
N          -9.68117196041048    0.69506710748615    6.47559430569170
C         -10.95723663003732    0.99903367556478    7.07876175762322
C         -10.80111301042017    1.55212140367909    8.49150291512924
C          -8.77416463319395    1.60645897407292    6.01055014540142
C          -9.00142015474723    3.04775223723264    6.03910951834380
C          -9.79875852434266    3.68793920853861    5.19275163209569
C          -9.93094492010321    5.18057483995362    5.17846871805310
C         -11.25290653474475    5.58703414876491    4.52488105367249
O         -12.34679611156542    5.37540667871330    4.95331145696727
O         -11.02526835543729    6.21941001731957    3.36726698035707
C          -9.64637209399203    6.25019858774097    3.02052161152195
C          -8.88921049927141    5.94349840297618    4.33179003242740
C          -7.53046212614768    5.27687429924603    4.14892140010172
C          -7.53679989334307    4.15267891667787    3.12482291621002
C          -8.05337600222349    4.59821276123680    1.77095371557795
C          -9.42426891994420    5.28953900123421    1.82561223685474
O          -9.49625110961611    6.03265304420800    0.61506222051323
C          -8.27566072394422    6.27225740066936    0.10428961954212
O          -8.09296832571618    6.87514377928640   -0.90582286554952
C          -7.21247786429770    5.64508469868926    1.01471553686306
C          -6.08896371456262    5.03158325102044    0.26192178198351
C          -4.91861998405063    4.57230198220145    0.73200116239849
C          -4.13953872508889    3.60757390308951   -0.11953818756580
O          -4.23331777560412    3.46367652249046   -1.31093308361377
C          -3.31580367509828    2.83895219119227    0.83326897340965
C          -2.54564219730499    1.73544025913512    0.60036443564241
C          -1.88686938941160    1.11898414590097    1.68687146790422
C          -2.04593821158934    1.65400443430621    2.99938551051772
C          -1.40555713527600    1.01365099775242    4.08215771382339
C          -0.65183511440672   -0.10403169456012    3.86626333404285
C          -0.49193159523446   -0.63041834009278    2.56890083014760
C          -1.09257125059682   -0.02998813212086    1.49907628749561
F           0.25415784757000   -1.72951113675489    2.39919097324948
F          -0.05257787997648   -0.73003913149374    4.89359649548116
C          -2.83907354324727    2.80436501677103    3.20885522012878
C          -3.45356628804750    3.39541190589171    2.13660502716207
C          -4.27714612259344    4.59646674179269    2.04376985620038
C          -4.22937657366894    5.63383732162328    2.92911137038503
C          -4.81769680501341    6.89626420541477    2.71010026753272
N          -5.26428080358533    7.94480929068909    2.57091015250960
C          -3.51339268072381    5.59309358605897    4.14706243304891
N          -2.96138901810734    5.62257889459046    5.15160663487686
H           4.47021238557201   -0.84343765218696    9.67375626487551
H           4.42225116364865   -5.42218797113820   11.57644942672690
H           2.21935056631124   -1.16441714003429    8.78653512288468
H           2.12245002547228   -5.77949320303913   10.67663652027001
H          -2.53096090600063   -3.47061899180421    7.15058609448321
H          -2.43757445005593   -6.20057076087809    8.53180356651212
H          -5.40350568608143   -6.00058446672001    5.74353662888970
H          -4.71629518712591   -6.44308715224350    7.93357767230552
H          -4.28130257984113   -3.56349092023957    8.60882797185778
H          -5.38351925869141   -4.73922764393898    9.30846566997353
H          -6.67573229450629   -3.01595811835754    8.13157694681961
H          -6.83334875915764   -4.53658032700720    7.25478174382577
H          -4.97229088594076   -2.20052105932353    6.62583051970384
H          -3.62930359255367   -3.59805214950620    5.37322010500464
H          -7.61783050215173   -3.05782598254007    5.59170600239967
H          -4.35078186969695   -1.52646088646586    4.27760677023560
H          -3.98666854669299    0.20584721211991    4.31840018558627
H          -5.72940517611219   -1.13919824510519    2.18876922744405
H          -4.03219971601818   -0.69794165008722    1.97531816369910
H          -5.24444017589678    0.56239110150513    2.23063448337340
H         -11.50964561375976    0.05617365249315    7.10571171555632
H         -11.49487012530813    1.71479350334968    6.45141670213355
H         -10.27323866587705    0.83869525582003    9.11977499505920
H         -11.78133651927775    1.73683809349021    8.92064101793173
H         -10.24685490443814    2.48784882897942    8.47769594306680
H          -8.40479332698257    3.59553177537237    6.75826986922592
H         -10.37575148188328    3.13812743505370    4.46070681648712
H          -9.91710271445658    5.53921127779006    6.21075562035442
H          -9.43132052529064    7.26442772848676    2.66635808106534
H          -8.72282655064979    6.90428152314396    4.83046337651062
H          -7.19007910457665    4.87784779451254    5.10451787492092
H          -6.81744549242690    6.04678801168741    3.85250838469233
H          -8.16556454906072    3.33613520797205    3.47889215204718
H          -6.52952988389159    3.74590492021185    3.02789744355555
H          -8.14697538250207    3.71892905241242    1.12173028204444
H         -10.25134884187069    4.57239540747685    1.80893815102656
H          -6.87032826200968    6.42853602618567    1.69537965020233
H          -6.28785529673623    4.82120310342654   -0.78427435122843
H          -2.44833708462189    1.33406526938216   -0.39670963098044
H          -1.50838671893673    1.40610432681236    5.08195830857073
H          -0.96072560936934   -0.44282639987394    0.51120918191878
H          -2.96764896439702    3.17575114334045    4.21232959110517
