123
 SCF done       -252.610641853873          0.001006115118
C         -12.83580313713954   -3.44359408305594    3.10180905281756
C         -13.50745382770526   -3.12363654535617    1.95497412850080
F         -14.25730815877815   -2.01799871819141    1.90290441034410
C         -13.42395170089286   -3.95213583030616    0.81694467661705
F         -14.09765811761330   -3.61527617516086   -0.28724257318314
C         -12.67242618519904   -5.09323202171155    0.84323910037804
C         -11.96920641609927   -5.44839909828914    2.00980365924797
C         -12.04642155157830   -4.60865378553375    3.15949031179546
C         -11.32517727661990   -4.93158093716379    4.33184851287904
C         -10.53039510011810   -6.04751513521995    4.34779969763657
C         -10.46009393353521   -6.87931412566842    3.19430144473828
C         -11.16735657959232   -6.60840606277956    2.05708133052741
C          -9.47954940345252   -7.94497646036146    3.42445363961632
O          -9.27027940796980   -8.91859192023075    2.72903388142842
C          -8.85087829796880   -7.63276358680389    4.73541357584776
C          -9.60190359940575   -6.55969268842618    5.35223537082046
C          -9.40176692016144   -6.04465273298642    6.60508299131900
C          -8.40343581354790   -6.49356349229814    7.49588646979400
N          -7.58047987936205   -6.78785637749436    8.23925838042898
C         -10.16266508181320   -4.98973794105055    7.15217618616862
N         -10.75569353650812   -4.14070887389417    7.64593461675668
C          -7.76970634106022   -8.33197391867651    5.20068577011062
C          -6.87941252556550   -8.98765337668024    4.32290224529512
C          -6.28554749357567  -10.24541210428099    4.43656789307336
N          -6.52052130542993  -11.16628024341391    5.46865661812199
O          -6.03464558003173  -12.27987058955544    5.35173284323146
O          -7.20271503639453  -10.80944590051747    6.41291601353300
C          -5.54815699612919  -10.52195821253618    3.25571617510672
C          -5.69792818213611   -9.46069963141790    2.38982469485666
C          -6.50074185534865   -8.47426472943212    3.00037181232532
C          -6.94045008802718   -7.23575131123104    2.50136121109700
C          -7.09951348756756   -6.04038273319054    3.23107804678182
C          -7.77070627385112   -5.12479896726507    2.45088065016394
C          -8.10332389441934   -5.72275993554928    1.21413052702412
N          -8.90782282972662   -5.05989105923337    0.28256171882144
O          -9.48877377796308   -4.05425586078379    0.66575931440447
O          -9.02419304667311   -5.51351395878245   -0.84706801880697
C          -7.56369138936852   -7.03601371870502    1.17709290846302
C          -7.75066616781591   -8.14130848318599    0.36137826833666
C          -8.47113449961384   -8.31427646911245   -0.81304198142200
C          -8.69134672125353   -9.57241879075472   -1.34924768974390
S          -9.15785975484997   -9.73530837429135   -3.01499419838259
C          -8.95587629433230  -11.46877767898935   -3.00650469532108
C          -8.53975843173698  -11.92034245839522   -1.72234319818777
C          -8.48774570558650  -10.86750407119061   -0.76271985269768
C          -8.28109081150422  -11.15711867338563    0.57835438497360
C          -7.93080667687576  -12.45442981989546    0.96552930708555
O          -7.66442656177453  -12.60783436744157    2.26704279289729
C          -7.23631048414885  -13.86309390425048    2.76225014961268
C          -7.85550384498373  -13.46793693422419   -0.00575108009792
C          -8.17802798475340  -13.21190723741646   -1.31805353654108
C          -9.22511160013581  -12.14747186395637   -4.19133836420263
C          -9.38468736080137  -13.51322214782144   -4.33132126928847
C          -9.62155005662384  -14.18768115707054   -5.52807902657298
C         -10.29448172851559  -15.42071864565706   -5.63403401740606
N         -10.64077956918404  -16.31066273719982   -4.60287781361274
O         -11.29888168639548  -17.28840279574590   -4.90584852098203
O         -10.25012032053605  -16.07544457255493   -3.46655476927757
C         -10.67240708619840  -15.62810868243715   -6.99040166833155
C         -10.20960621419423  -14.58965681808111   -7.74845815017294
C          -9.44093656857125  -13.71493934872169   -6.91948095339825
C          -8.52611800534561  -12.77247952756506   -7.34271806388067
C          -7.48172688749059  -12.15591084728776   -6.54401011650551
C          -6.84112279706353  -11.22735329666717   -7.28437333284045
C          -7.44969127563638  -11.21693230003580   -8.59622991214369
N          -7.04125383484660  -10.40213735886956   -9.66721416351919
O          -6.14617444721754   -9.60483698709441   -9.46577025150660
O          -7.61538129726234  -10.54991805527160  -10.73553785909163
C          -8.42696633546137  -12.18178559850060   -8.67579590281461
C          -9.17946809044487  -12.44415718663225   -9.89088746454818
C          -9.00230782321105  -13.52329052723112  -10.67764211686965
C          -8.01753830886851  -14.51857430495716  -10.40465702329406
C          -7.77601649143119  -15.66541187798434  -11.08644026854376
C          -6.46978848699553  -16.36349117308336  -10.90149625692376
O          -5.69453318088139  -16.20820860297600   -9.98827301484282
C          -6.32389972261623  -17.22437728782106  -12.09124362789051
C          -5.25208181750354  -17.97590936479818  -12.47971877212666
C          -5.32709809350612  -18.70814512326527  -13.68537911896352
C          -6.51490014740208  -18.64350389077046  -14.47138924577611
C          -6.58024208018291  -19.37255596052312  -15.67593944278618
C          -5.51800933986763  -20.13163774536898  -16.07993654949183
C          -4.34396794196439  -20.19536222123315  -15.30145797955901
C          -4.24937762842407  -19.49923159509637  -14.12910002709685
F          -3.31904254988648  -20.94603512341747  -15.72267574770275
F          -5.58193916123573  -20.82448802543527  -17.22277800835843
C          -7.61112954477138  -17.86160413647684  -14.04195610730486
C          -7.51928969775361  -17.16661180335274  -12.86533865866884
C          -8.48608477633526  -16.32742225748348  -12.16404867340731
C          -9.84178514354199  -16.34684194092356  -12.35033058944729
C         -10.74860239779605  -15.76056082130664  -11.44361272160297
N         -11.50774295572116  -15.34775257260181  -10.68823530166102
C         -10.48171137657058  -17.05402136139898  -13.39042296672658
N         -11.04228979334300  -17.59682607125817  -14.23152938595913
H         -12.90753829632814   -2.79443695374699    3.96047533231633
H         -12.61069358742327   -5.71199951864754   -0.03820736238666
H         -11.40337343921217   -4.27394684922557    5.18268758894370
H         -11.09087452277242   -7.25504606605058    1.19514941986614
H          -7.56286289297251   -8.40259456640540    6.26241162401903
H          -4.97919469853747  -11.41742594858306    3.09476067571089
H          -5.18843026523051   -9.34453733018483    1.45107780468181
H          -6.69911975352321   -5.86370020382371    4.21180353501311
H          -8.02558936111819   -4.11489509803834    2.71254190663568
H          -7.23648740125437   -9.02233825761233    0.71191631025153
H          -8.82192892773375   -7.45150403846954   -1.36371201146955
H          -8.42341949845908  -10.42910836470274    1.35822068132779
H          -6.96508484418701  -13.69100591770123    3.80359304066921
H          -6.35972294587320  -14.22671269941126    2.22010020163811
H          -8.03777172251740  -14.60388318212362    2.70660550666906
H          -7.57561138754417  -14.47073232056076    0.27327553583679
H          -8.12666238421665  -14.01965648099610   -2.02769619104229
H          -9.39617029898798  -11.52185024680213   -5.05895760075445
H          -9.48355413648552  -14.11456015839734   -3.43873107853382
H         -11.23903949208498  -16.47337067052761   -7.33269779667961
H         -10.34803271366561  -14.48776606860110   -8.80527866202003
H          -7.23069228360876  -12.45541081959460   -5.54625985726953
H          -6.01144068486223  -10.60589793881176   -7.00958110349319
H          -9.86828439956587  -11.66905246787567  -10.20211879643271
H          -9.57951603222557  -13.60425676793051  -11.58584584347883
H          -7.31315900746337  -14.29862928446778   -9.60859613467145
H          -4.35852879910044  -18.01074276298541  -11.87532403424576
H          -7.47191946067190  -19.33753063214735  -16.28215139511843
H          -3.34427201326176  -19.55831736395734  -13.54518373187625
H          -8.49440316007125  -17.82291720007052  -14.65954229807916
