121
 SCF done       -249.851421712432          0.000320460948
C         -11.55397663446974    1.12482033485936   -9.72824655436279
C         -12.71380957523595    1.78361421022890  -10.02428297053303
F         -12.71826620868961    2.76173003277120  -10.93887833832925
C         -13.91771020523991    1.44542910312282   -9.37279086834963
F         -15.03833911324921    2.11044856349770   -9.68218000744586
C         -13.94459499338450    0.45228613152946   -8.43436063967236
C         -12.76545007884750   -0.24484251052394   -8.10569751969417
C         -11.54734069203458    0.09678758982872   -8.76332589990255
C         -10.35154454251139   -0.58585189158337   -8.44788795446371
C         -10.37302047687303   -1.57967905265960   -7.50367159957292
C         -11.59543330865268   -1.91803879756262   -6.85543408422841
C         -12.76497969321440   -1.27308115984601   -7.13753419231740
C         -11.35307670511024   -3.00656649020817   -5.89284570555486
O         -12.09151265164965   -3.41081111238496   -5.02654127897668
C          -9.93655652061474   -3.42461146671553   -6.12967669961267
C          -9.30985224742730   -2.43607043118688   -6.99078416453326
C          -7.97282678304980   -2.31075290893969   -7.25217452592498
C          -7.42153707062503   -1.32906190573350   -8.10357547945770
N          -6.91784666883785   -0.55328361676882   -8.78247063756065
C          -6.97116375089197   -3.11244382327311   -6.66402496499274
N          -6.12014005610612   -3.72268024714781   -6.19380439198146
C          -9.40676723757220   -4.57273909884392   -5.65234359949751
C         -10.14480483960278   -5.60622159163011   -4.98798980064596
C         -11.31288172630311   -6.23340979571072   -5.37244791642528
N         -12.12000398382800   -5.98390192420803   -6.50144460435232
O         -13.11175582678103   -6.67377972822260   -6.63697699027026
O         -11.78186517055823   -5.11738278142233   -7.29378398088143
C         -11.58153027974614   -7.33495862991582   -4.47610407816207
C         -10.57350260578812   -7.42075695151154   -3.57738964322498
C          -9.63071407266948   -6.36350993633521   -3.83642992882685
C          -8.52590006758662   -6.00215213333031   -3.09716130861423
C          -7.96767704010425   -4.69015299452733   -3.02612030953482
C          -7.05529166418947   -4.66071660274868   -2.01743261505335
C          -6.94098844347606   -5.96654667939330   -1.43693028419645
N          -6.03988463104183   -6.16999414954697   -0.37653829558165
O          -6.12525734854118   -7.18224708298120    0.30555120513680
O          -5.22040659513462   -5.29308365058132   -0.17066874244296
C          -7.79943270654232   -6.84519615618036   -2.11515007365611
C          -7.88614417486171   -8.24566306843177   -2.18491000417254
C          -7.29079715128867   -9.16566826011780   -1.35687735291465
C          -7.38732831505395  -10.54753091095055   -1.57989223408953
N          -6.78445570630106  -11.48627810391658   -0.77819817383650
C          -6.01877365326534  -11.22625215275775    0.42019442366240
C          -6.91729552578276  -10.91704796804288    1.61390750575105
C          -7.02082960316834  -12.79826114509666   -1.22182515741502
O          -6.58857319190490  -13.79291138280685   -0.68400912206971
C          -7.84433583689868  -12.62183576436069   -2.40471483256974
C          -8.05453081709281  -11.25036618283427   -2.60394462581752
C          -8.87500953971101  -11.10755696431705   -3.78996320508594
O          -9.30488873836794  -10.12921169273272   -4.36552242627026
N          -9.11191275929353  -12.42966864135363   -4.22624110123857
C          -9.93610387908011  -12.66111931969207   -5.38972777313889
C         -11.37136231854012  -13.01546114049878   -5.00800768242083
C          -8.50026611433021  -13.34686333833405   -3.41002563505344
C          -8.43704933176428  -14.75617283396098   -3.48273285381750
C          -9.06505238684877  -15.61929918145909   -4.32497151675893
C          -8.87059572858809  -17.02027367276529   -4.28195242913308
C          -9.53001252115730  -17.95222799703617   -5.08505257237003
C         -10.46744630092135  -17.54253019902691   -6.04657338875329
N         -11.21509967091752  -17.14399643188921   -6.81930614717061
C          -9.12324681965967  -19.28103070362603   -4.82051096044768
C          -8.14445299927615  -19.31912761783821   -3.82662632880757
S          -7.72847673830963  -17.77874391193496   -3.19177376911197
S          -7.53932794765176  -20.89892132109194   -3.45287664850919
C          -8.61941963453265  -21.53967215005924   -4.64777162148953
C          -9.40911879265806  -20.59312132081919   -5.29689217790146
C         -10.25499272712025  -21.19966191537287   -6.25822541980637
C         -11.25437581611768  -20.53611836302823   -6.98528360432103
N         -12.09798637738104  -20.03493404665380   -7.57906875795984
C         -10.07171031646195  -22.57705534967127   -6.33544889261848
S          -8.89221026781170  -23.14740063419082   -5.17729674161961
C         -10.73349821472083  -23.53386858405406   -7.15088389361641
C         -11.32712152623519  -23.39693735210692   -8.36232605635171
C         -12.27541581939741  -24.47286611667478   -8.80192602687941
O         -12.39635142598517  -25.56316419399715   -8.29916347202307
C         -13.03745346934050  -23.88211476371871   -9.91419976701809
C         -14.11851645021326  -24.38837968662187  -10.57824647653490
C         -14.72018071904299  -23.61624401320095  -11.59638255293543
C         -14.19654868426557  -22.32454685273214  -11.89871445839365
C         -14.81268605944105  -21.55417223625000  -12.90547657273343
C         -15.89269073640882  -22.04484356439337  -13.58437571757920
C         -16.40677866263387  -23.32411392494150  -13.28749067193161
C         -15.83425180627205  -24.09397891657138  -12.31412189398559
F         -17.46500255853129  -23.77911321996453  -13.96902118592848
F         -16.47499304566663  -21.31445826152152  -14.54188359929634
C         -13.07188776412971  -21.82983808404406  -11.20018827840885
C         -12.49331110520415  -22.60418850920763  -10.23039757147998
C         -11.33220338942714  -22.36414551034159   -9.38018046461842
C         -10.32810248118679  -21.47696179517221   -9.65620325057206
C          -9.13560520025916  -21.38695212210517   -8.91351687353433
N          -8.14974097267375  -21.29547646578897   -8.33228678771838
C         -10.33799701021396  -20.59956901639299  -10.76261500630066
N         -10.28515728851792  -19.87919567498762  -11.65309531509608
H         -10.64148480018788    1.39641945915804  -10.23570409677402
H         -14.87390238160526    0.20480648359151   -7.94572423501744
H          -9.44723761324278   -0.30933759383913   -8.96598335427877
H         -13.67840734000170   -1.54920583867261   -6.63349337655963
H          -8.35190715612763   -4.77939588453844   -5.78783087609356
H         -12.45401169725889   -7.95454758235575   -4.55368148301507
H         -10.52725268444442   -8.09180010085804   -2.74345927701348
H          -8.30716925958184   -3.84653833463757   -3.59387296843321
H          -6.49345193943574   -3.81385734979022   -1.67024877699738
H          -8.46165376301401   -8.62657325629037   -3.01796783979592
H          -6.73008251766017   -8.83145913414379   -0.49797611732058
H          -5.32527195076096  -10.40172541595454    0.23986656661776
H          -5.44682875271413  -12.13758871902086    0.61453754449309
H          -7.49089712351827  -10.00928680614014    1.44542484518388
H          -6.30506127461585  -10.77701356310691    2.49965285426649
H          -7.60390162708837  -11.74154318471642    1.79124898047738
H          -9.48149097154674  -13.43680393622573   -6.00989621335775
H          -9.93509340061740  -11.72210352956002   -5.95096788350242
H         -11.40490892584495  -13.87656868093601   -4.34410716469229
H         -11.94227777756353  -13.24349697151963   -5.90328404815614
H         -11.83776754646150  -12.17340792521001   -4.50282137831917
H          -7.78274084699723  -15.17561359297183   -2.72563143027150
H          -9.76649752119143  -15.28557474584833   -5.07480166992190
H         -10.81679383018420  -24.52866631566058   -6.72010641312349
H         -14.51075457804998  -25.36227370342020  -10.32789736782279
H         -14.43038535319612  -20.57468688149367  -13.14650978856421
H         -16.24050127135583  -25.06968221202166  -12.09804641972703
H         -12.70425778821769  -20.84390279612792  -11.43466206090806
