117
 SCF done       -227.257853863524          0.000776850891
C          -7.66341818714057    0.09249856998271   -5.52755266774600
C          -8.44335980339645   -0.16241014055360   -6.62034653457563
F          -8.54819556805515    0.74918615913821   -7.59872087936132
C          -9.14055743130747   -1.38164068491261   -6.73650801714947
F          -9.89336075068599   -1.60281006741611   -7.82553890411711
C          -9.05610537780496   -2.32881088597798   -5.75542312527082
C          -8.26618424759711   -2.09090043139091   -4.61392218062082
C          -7.55092712151250   -0.86415052830291   -4.49825357184615
C          -6.73182056415805   -0.61863108767714   -3.37300004910049
C          -6.62890667780296   -1.57331871612142   -2.39500315860779
C          -7.36560553140783   -2.78442435519270   -2.50953042194161
C          -8.16963520153064   -3.04822795132543   -3.58040895349236
C          -7.09301511250658   -3.63822856549139   -1.33835009338192
O          -7.69773740290511   -4.64002354405945   -1.02882514946590
C          -6.02915060976137   -2.92979034742552   -0.56879524508852
C          -5.81374827400303   -1.63425303325744   -1.18384815705314
C          -4.91879752096411   -0.67341269258235   -0.78699929722143
C          -4.75467177494069    0.56728846676139   -1.43802856136878
N          -4.57615005959941    1.59690413871809   -1.91379850739371
C          -4.00344301992102   -0.77961523752399    0.28207969796017
N          -3.18502282897236   -0.79147491857840    1.08730418484210
C          -5.38943598631704   -3.40566846458999    0.54394973700004
C          -5.31782336204129   -4.76165606925455    0.92802412515446
O          -5.70997297934215   -5.73473865304547    0.09149605407281
C          -5.37180328667386   -6.92252274546550    0.60834636145212
C          -4.74379022463766   -6.73047694974628    1.83441589056699
C          -4.70092256588258   -5.34541973475311    2.05183487505779
C          -4.15864524804264   -4.60729237631390    3.20417962569152
O          -4.36554541363535   -3.42570449161564    3.35920361678604
C          -3.34660951242628   -5.43028926924339    4.16957276429357
C          -5.75589498026345   -8.11934245776725   -0.06428735240674
C          -5.78640326514486   -9.36452707436981    0.50599974946072
C          -6.53097542292762  -10.25092131083030   -0.33821720326775
O          -6.73799082592242  -11.49640885758740    0.10549301478452
C          -7.70527955190297  -12.33370207318249   -0.48660414843800
C          -7.01394018404789   -9.53986978913599   -1.43051217646801
C          -6.45226038780024   -8.19874407135863   -1.35604690038700
C          -6.35758731039307   -7.28973086547246   -2.38242743911252
C          -5.38267567725283   -6.23936233535210   -2.51347925218866
C          -5.66698181662659   -5.52855721271211   -3.63622875210400
O          -5.06872690711431   -4.46323701777477   -4.18249799577480
C          -3.92166421603175   -3.96699247153326   -3.53044188832515
C          -6.84737407889013   -6.11339245154573   -4.28109911646910
C          -7.22227191277161   -7.18303803933076   -3.56664797643673
C          -7.83440871952524   -9.99427580404327   -2.51895273179778
C          -7.60271380440039  -11.06393252513325   -3.30825377948536
C          -8.41108423761363  -11.37186411671608   -4.43195972336525
S          -9.76742700264717  -10.37140823949350   -4.85624556419810
C          -8.21228225149843  -12.37332420148314   -5.37795723247334
C          -7.18820108267839  -13.42594058516544   -5.24686303742427
O          -6.46264649331886  -13.55333490484152   -4.27257907901483
C          -7.16476768974824  -14.32031229834502   -6.39124228370704
C          -6.33345840175782  -15.38841550163822   -6.65043593625704
N          -6.67640827917272  -15.92447669355657   -7.84558425310042
C          -6.07768220582727  -17.09644848315944   -8.43346296157717
C          -6.80207566375414  -18.36458474099147   -7.98656676030804
C          -7.72143749922276  -15.24003171738894   -8.36554874036577
C          -8.05984880087172  -14.22512588064813   -7.49618528665544
C          -9.09523409404720  -13.21494904352350   -7.62086996950313
O          -9.85588081815327  -13.13167598201851   -8.56822665565211
C          -9.12271994087693  -12.29601955001260   -6.46141660504989
C         -10.02610654060357  -11.24591718453986   -6.34452833776565
C         -11.09352779478440  -10.93471879802873   -7.21746197979184
C         -11.79534815643909   -9.77185753809830   -7.31586730415869
C         -13.16370008696297   -9.78892391412991   -7.90625046328494
O         -13.66829236077354  -10.67354195231708   -8.55391154881833
C         -13.78798949595426   -8.52453409174345   -7.45870680483034
C         -15.07766884790892   -8.10568414688855   -7.61152614041415
C         -15.46638555066197   -6.86396047534786   -7.05999147740597
C         -14.50744713432537   -6.07990186193816   -6.35479917543479
C         -14.90663675553007   -4.84881358366850   -5.79670322203446
C         -16.19549601504342   -4.41569584847594   -5.93380874646646
C         -17.14212633702802   -5.19061191297128   -6.63359444688630
C         -16.78617876716255   -6.38891732033141   -7.18624632082321
F         -18.39909948661490   -4.74242560443251   -6.75037886137032
F         -16.57287324408416   -3.24681184578543   -5.40000849405335
C         -13.17578109112600   -6.53525102139653   -6.22163917485313
C         -12.82066893169955   -7.73802863019644   -6.77069294076232
C         -11.53974160214622   -8.43701566430645   -6.81955227478589
C         -10.31206707372212   -7.84335303469224   -6.67419402875211
C          -9.09486105597168   -8.47222590689845   -7.01435098780295
N          -8.08406750111843   -8.92578519790291   -7.31372358020892
C         -10.12511366258918   -6.52037973976438   -6.23817455081907
N          -9.90301101012281   -5.45877184225933   -5.85927993658847
H          -7.13199888679154    1.02880844767220   -5.45742255352563
H          -9.58236095583978   -3.26503614372958   -5.85910013391942
H          -6.20149889915276    0.31812927789910   -3.31797155726347
H          -8.71070240475647   -3.97938726213242   -3.64907926004925
H          -4.82407691713490   -2.73461095165269    1.17734448771085
H          -4.37303526176157   -7.50170516592489    2.47673716940323
H          -2.54723366727040   -5.94672548015483    3.64333289794443
H          -3.98673205510436   -6.17447252912129    4.63940534686375
H          -2.92657347098898   -4.78364294519654    4.93484816095722
H          -5.39610906133836   -9.65569052777594    1.46165783305781
H          -7.90654065993619  -13.11206222024180    0.24920307877910
H          -7.33159615212263  -12.79476591241850   -1.40454091566475
H          -8.62456876179252  -11.78555227327579   -0.70557720918890
H          -4.53852804049831   -6.10668370668681   -1.86830582402836
H          -3.64166368676774   -3.05535216565849   -4.05523957202056
H          -3.10063426183930   -4.68813814517738   -3.58260910812117
H          -4.12965992615177   -3.74077052529726   -2.48048393942579
H          -7.28819032848027   -5.72129264354615   -5.17715285098399
H          -8.06383153817424   -7.80787323709742   -3.78059137703858
H          -8.69651851346014   -9.37537015188222   -2.74439472210745
H          -6.73091104834379  -11.68777773284092   -3.17529991764237
H          -5.52511727751680  -15.77591508238656   -6.06258121937957
H          -5.02819819564891  -17.13857959187884   -8.13146429281396
H          -6.12524855775513  -17.00238123896852   -9.52129220802930
H          -6.75839466119346  -18.46484097999117   -6.90471404517397
H          -6.33616599487394  -19.23620938906431   -8.43697955599919
H          -7.84595734165590  -18.33122905457877   -8.28892963193207
H          -8.15861810484711  -15.49517554099044   -9.31041701858615
H         -11.43742808977985  -11.75331253088046   -7.84423552792952
H         -15.79286302585149   -8.71371210804978   -8.14410184302307
H         -14.19468557570444   -4.24077168896313   -5.26081646068915
H         -17.52236883041666   -6.97052909629106   -7.71859424687966
H         -12.47171617819033   -5.92815368369288   -5.67496860558145
