114
 SCF done       -227.662419996765          0.000558496057
C          -1.16024509988499   -0.33958063108051    7.07098873524942
C          -1.07133907727236   -0.30595135463471    8.43428943762704
F          -0.19124293600004    0.50685185949978    9.03189126882754
C          -1.90162036415684   -1.12356026875452    9.22806556517811
F          -1.79181245726455   -1.06993044496404   10.56173628186724
C          -2.80919721417946   -1.96400535383115    8.64680470662630
C          -2.92443657209625   -2.02204747185111    7.24408164323219
C          -2.08697832642923   -1.19441747102335    6.44039581627242
C          -2.18900662153145   -1.23081848540342    5.03132164850401
C          -3.10368001942557   -2.06552598296227    4.44356098638739
C          -3.93052371669882   -2.89300181244838    5.25342512354774
C          -3.85055250123398   -2.88382006457061    6.61667500551884
C          -4.81846209105037   -3.69819077470846    4.39767970949222
O          -5.56209358223318   -4.58167804391311    4.75981600402360
C          -4.49662758183788   -3.29006233760635    2.99793273212286
C          -3.44213026604331   -2.29432037025203    3.04313453288653
C          -2.91795486871529   -1.61827541399586    1.97339684311660
C          -1.91677337056966   -0.62887051519726    2.07727494396968
N          -1.09879522736015    0.17578268318729    2.09750534500862
C          -3.30998701421185   -1.79803540277974    0.62954185224871
N          -3.58484821091924   -1.88212463796317   -0.48180462771672
C          -5.00832220042042   -3.88357287421085    1.88497339931292
C          -6.18602845371665   -4.67411292374256    1.86538414548285
S          -6.37830868848792   -5.95600286955132    0.68728896930117
C          -7.97474609045564   -6.36413943895519    1.26592388335294
C          -8.32021639736312   -5.50879927789996    2.30413600610057
C          -7.33100828127301   -4.56573706008408    2.63383835790299
C          -7.85394035949047   -3.61622125585251    3.63226798352446
O          -7.38000038005403   -2.56616056824361    3.98073900154950
C          -9.18695433034794   -4.19469362629676    4.08498686802061
C          -9.51288654134012   -5.33788977893389    3.13491390144619
O         -10.54406514788176   -5.96237028776862    3.08318627116138
C          -8.78624631671749   -7.39913042261387    0.75134123753346
C          -8.41971362095499   -8.21124358787543   -0.27488207156345
C          -9.12842057453144   -9.27947498872657   -0.87436899712618
N         -10.35859634279514   -9.81341690530646   -0.57379804412501
C         -11.32099552255231   -9.38295071584514    0.41351906069406
C         -12.09649317370714   -8.15039091403052   -0.04422314406158
C         -10.67586570998679  -10.89992457201734   -1.41882252792940
O         -11.70028771235473  -11.53937274717210   -1.32790286287843
C          -9.53405494250145  -11.02223676975517   -2.30100157788733
C          -8.60863499767602  -10.02419073457762   -1.93725161568616
C          -7.43945289691357  -10.15595631538289   -2.78203040414466
O          -6.40580634437230   -9.52767955552537   -2.84439091102411
N          -7.74439011160043  -11.25302124054280   -3.61302645023934
C          -6.79689428076793  -11.73528607151187   -4.58923381797204
C          -6.02096440260376  -12.94748024372055   -4.07959320603818
C          -8.98426388264658  -11.78084380510793   -3.33811601721905
C          -9.53290881170800  -12.89516533954051   -4.01099514505996
C         -10.79842287242311  -13.35261250289170   -3.80362406265596
C         -11.31421578136269  -14.50161110218197   -4.43995178997949
S         -10.32451541224942  -15.57244485315949   -5.41851477287007
C         -11.64725827352378  -16.67912548777999   -5.71009494233330
C         -12.78722316135202  -16.20844344507003   -5.07773650945226
C         -12.60697098773257  -15.00227087417355   -4.37778505890609
C         -13.87340032639501  -14.56021483926261   -3.77645690101049
O         -14.10192465331998  -13.53418985852659   -3.19347979432769
C         -14.87991009850500  -15.66730729525953   -4.07956708928027
C         -14.17014053260497  -16.68470193672238   -4.96015005440240
O         -14.65431948944386  -17.67055532154063   -5.45597196305214
C         -11.51527786494399  -17.88113857636785   -6.43692847089285
C         -10.35379428686275  -18.31111234047189   -6.99715341703381
C         -10.23809863464643  -19.56024186943242   -7.64394502767985
C          -9.09459694358459  -20.17507564090891   -8.06108291385060
C          -9.18040373800113  -21.30379153946742   -9.02939313812508
O         -10.17505980938803  -21.91649742136832   -9.33802494599090
C          -7.81182506636605  -21.46438782621199   -9.56017690608978
C          -7.36949778538630  -22.29299317969671  -10.55061346254815
C          -6.00525382137130  -22.25925624557893  -10.91632920359076
C          -5.12613988772776  -21.35596974425566  -10.25103918498487
C          -3.76768473316660  -21.32117695747798  -10.62503552482648
C          -3.30324872282460  -22.14710371326430  -11.60980418961979
C          -4.17321640400559  -23.04178466946772  -12.26557341984775
C          -5.49631654053929  -23.09756012412703  -11.92726562365725
F          -3.69019664062643  -23.83874941947220  -13.22718395840928
F          -2.01214405262420  -22.11382447385951  -11.96255516427835
C          -5.61238549794427  -20.51315439975381   -9.22559051943755
C          -6.93563554769347  -20.57260623495720   -8.87756798847913
C          -7.69673261268555  -19.87032395642116   -7.84494221579921
C          -7.14520190171126  -19.23020745404667   -6.76541384542298
C          -7.85446151678213  -18.80048584895836   -5.62367885051341
N          -8.35163506650146  -18.46416719513423   -4.64514904380251
C          -5.76076147613964  -19.00289046975063   -6.61313836358872
N          -4.65064838895906  -18.76579333838483   -6.44264087685404
H          -0.51864091669700    0.29404329426960    6.47870165142147
H          -3.43721013300516   -2.58314062558682    9.26805946776955
H          -1.53814263082673   -0.59625527048845    4.45196812874793
H          -4.49100887091029   -3.52117390586415    7.20699716290010
H          -4.50381403782565   -3.76697152170389    0.93409902722265
H          -9.97549186782820   -3.44128771631579    4.11583288926949
H          -9.07815546434589   -4.58448636934841    5.10062333607578
H          -9.74061401615368   -7.48355747047646    1.24851398949083
H          -7.44724585844936   -8.04994238676322   -0.72803208543397
H         -10.81923428082618   -9.21064381281238    1.36814251899534
H         -12.01513302794799  -10.22035211391706    0.53324167591463
H         -11.42632960270983   -7.33338652904760   -0.30129127865649
H         -12.75737524896564   -7.81962350968894    0.75154070845917
H         -12.69538376827808   -8.39406585009061   -0.91825959634271
H          -6.10378395442228  -10.90896056953319   -4.77056477316365
H          -7.31934412542419  -11.96809974900680   -5.52117307911974
H          -5.47333667995509  -12.68371933811831   -3.17841831375672
H          -5.31008566470074  -13.27205048234079   -4.83416441580715
H          -6.68790419190127  -13.77524608887340   -3.84911714295934
H          -8.90720039863383  -13.40826572260255   -4.72980483952948
H         -11.46890801341465  -12.84627939406573   -3.11874648989330
H         -15.77276878622253  -15.27086370788039   -4.56685455585515
H         -15.21504626644341  -16.13715255666451   -3.15185395238796
H         -12.40722008925024  -18.49372571713999   -6.48296538328589
H          -9.48491292072670  -17.66905371413295   -6.94340330945102
H         -11.15905486397306  -20.07951165905570   -7.88839874282705
H          -8.05129401754629  -22.96616325414791  -11.04753296723333
H          -3.08746748004324  -20.64527305124539  -10.13073583422997
H          -6.14915120840408  -23.78751602724726  -12.43856660276005
H          -4.92493945037542  -19.83503783906045   -8.74589384726593
