115
 SCF done       -247.754589804106          0.000596498486
C          -9.13246555043349   -0.22139195955062   -1.28419336135881
C          -8.15961554530810   -0.03990413842528   -2.22694283098700
F          -7.76171447965758    1.19485903018317   -2.55492827336249
C          -7.56342715315299   -1.14691339020701   -2.86487134533935
F          -6.61283467139667   -0.93983873922271   -3.78483931748001
C          -7.94933891307020   -2.42000383307785   -2.55153131671612
C          -8.94977947581931   -2.63978273851420   -1.58461416762871
C          -9.55144382501497   -1.52149203569832   -0.93696534869288
C         -10.55032466327825   -1.71828893380119    0.04355960006355
C         -10.93238261454208   -2.99331136059867    0.36783392820639
C         -10.33584380534034   -4.10466798381397   -0.29256785123735
C          -9.37015355512034   -3.94455568808423   -1.24509030644806
C         -10.92805301573796   -5.35584557039085    0.21204127797451
O         -10.70991138561907   -6.47813177356243   -0.19655327244056
C         -11.91943245492275   -4.93986598754994    1.23641855459512
C         -11.88795030393459   -3.49502598566155    1.34837345265723
C         -12.54357858636970   -2.75157622550522    2.29237703777161
C         -13.31547773131666   -3.30709267656480    3.33591366644260
N         -13.90346849669974   -3.70484646972023    4.23772689453208
C         -12.47404291516994   -1.34516889344084    2.37758854708028
N         -12.45422597803607   -0.20286173472323    2.48443291748287
C         -12.81699750196221   -5.78979619673474    1.80905702194671
C         -12.68840901971533   -7.20416479640161    1.81566757816373
C         -13.67952388454971   -8.14266420442147    1.54629365365944
N         -15.00545958011390   -7.85242355901095    1.18146643034744
O         -15.77005708926678   -8.78925376499963    1.03998304319564
O         -15.31206839074733   -6.68007498512277    1.02971935898436
C         -13.12245839080289   -9.45925990097639    1.60292839155475
C         -11.79212726274011   -9.34584793206954    1.87054691895184
C         -11.46198890981476   -7.95680905966862    2.02833874363926
C         -10.25770801153714   -7.43180927472803    2.48183966091460
C         -10.08696962615786   -6.32151793172837    3.33864764725457
C          -8.77204470128537   -6.26048068081153    3.73873513717422
C          -8.04021702935787   -7.28785116724552    3.09353549272723
N          -6.66585623787101   -7.47859499431255    3.26090408826278
O          -6.13087141547437   -8.43222594037804    2.70383920217203
O          -6.06568983029638   -6.68785069143785    3.96939660810332
C          -8.91748997378098   -8.01346154213937    2.25829082856918
C          -8.55477727408106   -8.94268712179335    1.29464308873450
C          -9.36358915666643   -9.36686169349769    0.25150197211142
C          -9.13510439906540  -10.42600143484731   -0.61469634780052
S         -10.30068151537865  -10.64274016863956   -1.89838552981122
C          -9.51027395740853  -12.04647617190063   -2.51282369586005
C          -8.35119241102986  -12.34456551845593   -1.75600572916957
C          -8.14475304118367  -11.45190115375659   -0.66578762638943
C          -7.06540895450014  -11.66899795991879    0.19698811186498
C          -6.18650999380300  -12.70969389563609   -0.02969281185278
C          -5.03056539569915  -12.94308177313619    0.88485450619438
C          -6.39343792774877  -13.57008039326496   -1.12323226670324
C          -7.45656180633617  -13.40490578776240   -1.97065714440858
C         -10.01893192881299  -12.80341592097018   -3.58399696606032
C         -11.18075397189801  -12.52703684243910   -4.23714808623766
C         -11.75224975572008  -13.30373980686930   -5.27851775624291
S         -12.83328830458045  -12.51889596437921   -6.38686520211524
C         -13.02292916173099  -13.94930524257942   -7.34386989230320
C         -12.26239992122121  -14.98727226791384   -6.81882523465213
C         -11.58951964522436  -14.64250850402207   -5.62724229102441
C         -10.94543062822870  -15.65105357855902   -4.72053807552265
F         -11.12921825053308  -15.33782286433333   -3.42282542829076
F         -11.46076531485402  -16.87283742536901   -4.85926976724829
F          -9.61527435168264  -15.75929294123506   -4.88803918297982
C         -12.10583591680554  -16.31528661881966   -7.50407281523305
F         -12.19751626043577  -16.21249188407493   -8.84485648368075
F         -10.91395811079463  -16.86931614598076   -7.27626974144908
F         -13.04517809713356  -17.20474266728192   -7.14574451164756
C         -13.85756395706398  -13.96636703998343   -8.49351334243597
C         -14.50377463841442  -12.88388106971177   -8.98510962621289
C         -15.31669758889280  -12.90913306912862  -10.15299226601578
C         -15.24444425122936  -13.72719081123548  -11.23434913576087
C         -16.42983908738287  -13.79963077901020  -12.14769735815485
O         -17.36501259499355  -13.03695018813980  -12.16422669326532
C         -16.22366450407381  -15.01485806024619  -12.95444707219775
C         -17.07537832815411  -15.61097410858392  -13.84051244928509
C         -16.67336160755996  -16.80306440555231  -14.48228611312513
C         -15.39654414995293  -17.36273038865121  -14.18251140684063
C         -15.00567308508509  -18.55822772540915  -14.81880863087707
C         -15.84035547383825  -19.16657959650541  -15.71380435961554
C         -17.10217131350776  -18.61101845637822  -16.01108222140066
C         -17.51128803241389  -17.45441544797555  -15.40869370252479
F         -17.89865299769079  -19.22945848545799  -16.89076420476608
F         -15.46741092222733  -20.29961415673445  -16.31918918989823
C         -14.53501227355608  -16.72132993790185  -13.26389618278904
C         -14.93772435461102  -15.55589427343077  -12.66733483265972
C         -14.25693809675724  -14.67650874379357  -11.71884180067389
C         -12.90101513085463  -14.63283950693739  -11.53811184298513
C         -12.22473277641013  -13.67439132426199  -10.75805937081896
N         -11.62162251293945  -12.91319551929386  -10.14643943775995
C         -11.99893646339473  -15.51180942049595  -12.17786216855360
N         -11.22556243196468  -16.19213467621571  -12.68196953906733
H          -9.57673402154450    0.63642497846787   -0.80399484955573
H          -7.48302389264504   -3.25605924700737   -3.04877264994450
H         -10.99104637830769   -0.85369526884479    0.51315214259838
H          -8.92957171920634   -4.80263008133095   -1.72980534443401
H         -13.72377445398061   -5.39142897131315    2.25037186841850
H         -13.69142290550829  -10.35619645210956    1.45106811779950
H         -11.10621434318265  -10.15154490918976    2.05027524342583
H         -10.88482444964669   -5.71030358883342    3.71590862049291
H          -8.34109927180831   -5.56456536108478    4.43439681475367
H          -7.52816895274362   -9.27602039043318    1.34401958264216
H         -10.25553898491925   -8.78514080936806    0.05395110703622
H          -6.90518661681072  -11.03882794031801    1.05455815741469
H          -5.20333087304456  -13.84000799181717    1.47995895355955
H          -4.88693223605489  -12.10351401252414    1.55926502101600
H          -4.11803412115147  -13.10009535318501    0.31291906026946
H          -5.69974792773419  -14.38111832182873   -1.28592572349176
H          -7.60342002100500  -14.08265081845357   -2.79630624301221
H          -9.42278087500369  -13.65245456581164   -3.87850396204413
H         -11.71016445284112  -11.61385917044560   -3.99627553835162
H         -13.99528023834640  -14.91959324335457   -8.98173989801780
H         -14.45576310903749  -11.94669401172584   -8.44517560296211
H         -16.14265388670812  -12.20381216435775  -10.17780927185579
H         -18.04266276788790  -15.17913842690034  -14.04731781260018
H         -14.04239316063157  -18.99461354183912  -14.60566855007026
H         -18.47960146864844  -17.04273642685206  -15.64648821086905
H         -13.58127487066553  -17.17399126123204  -13.04506146696404
