119
 SCF done       -240.896296098696          0.000552240967
C          -6.42440327992377   -3.57389198327920    3.07192683993720
C          -6.84724771054591   -4.48076166900411    4.00314231139758
F          -7.21796343615895   -4.07140141500357    5.22016467153891
C          -6.89263019339053   -5.85669111672062    3.69835559557108
F          -7.30508239754562   -6.72290556637363    4.62992201861332
C          -6.51111517156948   -6.30734054645970    2.46613559266538
C          -6.07881221254072   -5.39626166055839    1.48356746531419
C          -6.03732070096128   -4.00345396082627    1.78772113919779
C          -5.64482426649719   -3.06825753711801    0.80294193033238
C          -5.34797028686988   -3.50582066375117   -0.46150949675379
C          -5.41223978500492   -4.89579120816885   -0.76066013155975
C          -5.73614510319445   -5.82757603394174    0.18434860594145
C          -5.22578324115140   -5.09468102365034   -2.20364443228434
O          -5.10047976559352   -6.14149916771651   -2.80155526368383
C          -5.16240676321769   -3.72112133077145   -2.78260596042213
C          -5.05546707349637   -2.77519020969950   -1.69257146262069
C          -4.82902858466875   -1.42950941979036   -1.79867533179096
C          -4.65999530615361   -0.75029312255932   -3.02421656171732
N          -4.55658345036122   -0.14480391629124   -3.99298015591428
C          -4.73989332395570   -0.56133932055067   -0.68959526025349
N          -4.64708384110386    0.18147445291985    0.17972341616733
C          -5.19310777220479   -3.51249636500220   -4.13891815420719
C          -5.81699378932977   -4.44411490442099   -4.99048265147550
C          -5.45294497333405   -4.90059833408656   -6.24978048518162
N          -4.33661938797297   -4.46382249817330   -6.99333035850046
O          -4.17490230764007   -4.94529936205976   -8.09749565328396
O          -3.61442173570070   -3.62339017303958   -6.48657213671400
C          -6.31162510306612   -5.97651421447555   -6.62029943878955
C          -7.19992205442216   -6.21375732024553   -5.59904737373232
C          -6.98337794636802   -5.26186581837276   -4.57534328941620
C          -7.69644861651145   -4.96546154507396   -3.41357549252067
C          -7.87711001685479   -3.64598330857704   -2.88955023539536
C          -8.41424720904407   -3.73614701499271   -1.64315682339018
C          -8.53581327565042   -5.11793178416703   -1.29026774268862
N          -8.95259445129680   -5.45979666795206    0.00211064623284
O          -9.16625924938459   -6.62804253780326    0.29540461285359
O          -9.05260033904704   -4.54716233881396    0.81002221610225
C          -8.17415417191545   -5.91205872387247   -2.39733896046692
C          -8.05738185004537   -7.29985456629723   -2.59677877391288
C          -7.99725325445634   -8.27686438580917   -1.63895167650201
C          -7.96663745581719   -9.64417986035202   -1.95446032207618
N          -7.73989947188973  -10.63071855420908   -1.02684112177791
C          -7.45004759058985  -10.43886418954279    0.37678792213733
C          -8.69804157636394  -10.11009590527269    1.19245406769631
C          -7.81217507285382  -11.91350141300619   -1.58746466723169
O          -7.62486563112541  -12.93910593324437   -0.96924485584257
C          -8.13044092844261  -11.67426673153032   -2.98569949478774
C          -8.20349220166377  -10.28519408883316   -3.18525811223466
C          -8.57347002599840  -10.05360903035991   -4.56784081596215
O          -8.73764351853756   -9.03386109230087   -5.20581727993346
N          -8.71160003383762  -11.34113779547914   -5.11385387128092
C          -9.11841938580739  -11.53336143137368   -6.48719413174619
C         -10.60416849181116  -11.86284204755681   -6.60330857648693
C          -8.45344391779117  -12.31920561232972   -4.18872325612626
C          -8.53552003532190  -13.70189799054010   -4.46244042608604
C          -8.15656421651763  -14.65394190442154   -3.56623990235372
C          -8.27567661746414  -16.04364490629556   -3.80449098375784
O          -7.67919343344586  -16.90686944058685   -2.95734282007474
C          -7.94345183547463  -18.16666855386246   -3.35025054572689
C          -8.75753222577732  -18.13469914785377   -4.48817656717767
C          -8.95981988904112  -16.76534628747200   -4.79273156046162
C          -9.71600994541267  -16.25148432218340   -5.85417506312529
N         -10.33261460743961  -15.83023103273217   -6.72474515033122
C          -9.24854957124566  -19.24162445307761   -5.19546379080613
N          -9.64412898585765  -20.14778188289624   -5.77437910158449
C          -7.42856504709098  -19.31450445561180   -2.69238778551676
C          -6.45954517088783  -19.33644863678039   -1.73986144169583
C          -5.68106965651597  -18.22178072886303   -1.33671969391375
C          -4.78221502745434  -18.17842809813574   -0.31720407276484
C          -3.71578338650732  -17.13377744312031   -0.31907254747732
O          -3.69207185223416  -16.13006152757317   -0.98998974969398
C          -2.68392014548753  -17.64229076079113    0.60522695434834
C          -1.44186270428755  -17.13662135350055    0.86261272495944
C          -0.59437161767660  -17.82072455948030    1.76205387747060
C          -1.05213705481097  -19.02160980810385    2.37949867393982
C          -0.19713794791679  -19.70421829915935    3.26795335735273
C           1.05265393892039  -19.21773903317709    3.53156361623929
C           1.50405016498166  -18.02949098179323    2.92084674513754
C           0.69831352468759  -17.34420632449626    2.05520983071790
F           2.73317497166488  -17.57785411924572    3.19615871702163
F           1.86332101610104  -19.86731774583849    4.37424745548771
C          -2.34622655972818  -19.51752301543737    2.10054854858677
C          -3.15237684041545  -18.83560354857667    1.22847214983451
C          -4.51557221853120  -19.09377933482086    0.77246625647494
C          -5.43271647670572  -19.89907047507841    1.39226362215436
C          -6.80847970326802  -19.90278523045945    1.07296325761556
N          -7.93878026906183  -19.89968111657899    0.87766924152823
C          -5.12498128522735  -20.73322403781280    2.48816817037854
N          -4.91259905701127  -21.44102962320671    3.36563308912307
H          -6.40450674057441   -2.52457689975678    3.32058287171034
H          -6.56316974816969   -7.36217783123765    2.24656999243089
H          -5.62366862498851   -2.02266203515881    1.06487377416121
H          -5.77023296811854   -6.87517285331817   -0.07395609500574
H          -4.74587709283897   -2.63289291770426   -4.58789114490681
H          -6.23935624624177   -6.50508364571035   -7.55228220130470
H          -8.00053503458259   -6.92798463807075   -5.63227959330803
H          -7.69634200707718   -2.74548022611201   -3.44562138093488
H          -8.70717363446919   -2.93255231168346   -0.99486509653939
H          -7.96821958793485   -7.60924367370851   -3.62729672418555
H          -7.98139091213229   -8.00891014040999   -0.59624364624851
H          -6.69522607601911   -9.65441199389032    0.48094088470032
H          -7.02348177889823  -11.38413487468656    0.72449434770207
H          -9.13385454681193   -9.15778925296556    0.90059537888324
H          -8.43753517921948  -10.06113094984432    2.24624641599766
H          -9.44348987139485  -10.89019514334847    1.05986034814847
H          -8.50961653080708  -12.31943790680905   -6.94073598397402
H          -8.91247892513144  -10.58847722668141   -6.99743046899436
H         -10.84300668763399  -12.80074463724933   -6.10780714821430
H         -10.87411237428752  -11.95084197631460   -7.65142586955434
H         -11.19861117140533  -11.06970526880740   -6.15629942118963
H          -8.90689974683544  -13.99867019459882   -5.43195120355964
H          -7.73228332380388  -14.37451519095292   -2.60994545140743
H          -7.87579872547947  -20.24572481718317   -3.01134470127277
H          -6.20990613250401  -20.29873600175338   -1.31467110408596
H          -5.70604445500051  -17.33421001565083   -1.95845054021180
H          -1.10912909598934  -16.22850182353888    0.38340977540032
H          -0.52725456723017  -20.61312931615092    3.74618311133478
H           1.05863272864294  -16.43714231747212    1.59572841355187
H          -2.66408247530578  -20.43277177157969    2.57420813202732
