124
 SCF done       -244.694453451156          0.000790848967
C         -15.46763491610753   -2.05106380176511   -4.95937761636692
C         -16.45482723712815   -2.85112947880909   -5.46297288404949
F         -17.48555367183061   -2.31304371974252   -6.12582524939930
C         -16.40141292771701   -4.24938339732203   -5.29268717067587
F         -17.38195305344518   -5.01013644700913   -5.79673168832256
C         -15.36162673329796   -4.82799397048173   -4.62050817566033
C         -14.32944333655318   -4.03040765925545   -4.08929855809135
C         -14.38086567903470   -2.61670174946694   -4.26279903872701
C         -13.35088999777199   -1.79726033736393   -3.74671637039179
C         -12.30239717101175   -2.37480239537776   -3.08091146800745
C         -12.26539491308820   -3.78596739695293   -2.90003849344712
C         -13.24605037088036   -4.60213002321989   -3.38621426345378
C         -11.05896895301230   -4.15625793993275   -2.13720447920548
O         -10.78139338357139   -5.26143386239893   -1.71873997448147
C         -10.33798026845817   -2.88010450534554   -1.89619557030952
C         -11.09731784712476   -1.80202801894399   -2.49108837813362
C         -10.68891611963704   -0.49820969462629   -2.59516879103477
C         -11.45641574151946    0.52343969122565   -3.19155269530080
N         -12.04584696221617    1.39009878795604   -3.65902314933319
C          -9.42333627106700   -0.03331943457482   -2.17768549225232
N          -8.38851412501298    0.38871668277971   -1.91723731126427
C          -9.24407426542799   -2.76684520662327   -1.08426889469891
C          -8.40730165682372   -3.84760239323155   -0.72601840106593
C          -7.84990025848076   -4.11955744295913    0.52461083780695
N          -8.02124230080698   -3.35473945064480    1.69008434489841
O          -8.76320867643174   -2.38620081974158    1.63695248384798
O          -7.41336607656072   -3.70295037311360    2.68655799340807
C          -7.15632736167365   -5.36250313276585    0.46965190827562
C          -7.29658834088329   -5.87913638276882   -0.79149342195190
C          -8.04191094967059   -4.96474808891342   -1.58749292363557
C          -8.26797883940611   -5.01721002369155   -2.96512280779124
C          -8.29731554147754   -3.92283124037216   -3.85312192409909
C          -8.47036954266011   -4.39690742969786   -5.13151000147227
C          -8.61337242845532   -5.80755261513180   -5.10207240915273
N          -8.75570055635472   -6.51767793075299   -6.28735198201275
O          -8.62565835065868   -7.74439307540701   -6.29442987085780
O          -8.98496843573880   -5.88655880565642   -7.30975902244641
C          -8.52983202091714   -6.23852777882880   -3.74727982783647
C          -8.88212612186230   -7.40627907984295   -3.08306785482024
C          -9.33653294125881   -8.59279995933763   -3.63875360003001
C          -9.67450737202364   -9.71882712371286   -2.89871790064985
C          -9.85698147873079   -9.79206502101933   -1.49569969649641
C         -10.29114289328882  -11.05984153740090   -1.15686757934065
O         -10.57672866710123  -11.57598097213131    0.03304733570926
C         -10.42900416886267  -10.74590078159882    1.16891815338597
C         -10.36631366283507  -11.87126758959252   -2.34804609267044
C         -10.04862726255257  -11.01722333077866   -3.45844119984023
C         -10.19467784257743  -11.31592098616712   -4.80356763639234
C          -9.55784015771305  -10.73770591057034   -5.92128649746783
C         -10.13219086650481  -11.26352968770329   -7.06198422667214
O          -9.88652675511885  -11.02363163378403   -8.32713583550065
C          -8.89767255620154  -10.05770183002589   -8.64886737915222
C         -11.19431496643959  -12.20189622649224   -6.66739093512752
C         -11.21251830128464  -12.26144909597756   -5.33044892211505
C         -10.50751300691780  -13.25760655297848   -2.28148047878853
C         -10.19851903321635  -14.15793780487357   -3.27809880794550
C         -10.36264868964418  -15.54444893717903   -3.16491732994984
C         -10.85255547980910  -16.28993099061709   -2.09409511192605
C         -10.82082567940271  -17.66006781594637   -2.42498876467117
C         -10.29013890630027  -17.74251634882167   -3.80258995931948
C         -10.01323201191085  -16.48307861518360   -4.22312728209579
C         -10.07602262566727  -18.90441221931156   -4.55414728634479
N          -9.88041657443197  -19.83284012160396   -5.20091312270280
C         -11.18844417419476  -18.72749518115332   -1.62458315415676
C         -11.22308451802564  -20.10302598775407   -1.97218969124255
C         -11.70361288157506  -20.83096272581840   -0.89999469728190
C         -11.93008824903171  -19.90420554078809    0.19881455279092
C         -11.62162912926738  -18.64814063107969   -0.22146762988629
C         -11.67712277226239  -17.50046298593156    0.57600637456584
N         -11.72227758187234  -16.57373266375798    1.25398419116501
C         -11.87582824627839  -22.23639618612071   -0.86532278207610
C         -12.64128855955055  -22.96845011492948   -0.00917255290782
C         -12.35995266058270  -24.41858790687185    0.19268118744466
O         -11.65868327125640  -25.12224557918374   -0.49391877582309
C         -13.07021874795686  -24.77578316031764    1.43818722691671
C         -13.03566061503907  -25.94708199518983    2.13839566335975
C         -13.77792497202363  -26.05335061739781    3.33599706081873
C         -14.54228127649334  -24.93800337922483    3.78759017565160
C         -15.27183102109658  -25.04814283325416    4.98833320782347
C         -15.24597833979933  -26.21120674136356    5.70563284670617
C         -14.49150594809201  -27.31436606014195    5.25705549261143
C         -13.77284864021242  -27.23861562372597    4.09691609345088
F         -14.48376551038675  -28.44068817434296    5.98101252440754
F         -15.93899422383195  -26.31381783035720    6.84623534427176
C         -14.56707539269343  -23.74052629872673    3.03645242137598
C         -13.84501963542695  -23.66297967789044    1.87584333839853
C         -13.70091278615964  -22.58732055690993    0.89862144193969
C         -14.56913467748216  -21.54053233844512    0.72776751361533
C         -14.55149259644805  -20.68528896122853   -0.39512529098855
N         -14.62184519709164  -20.00683766776864   -1.31819713645377
C         -15.63788144837528  -21.26297963343146    1.60466850744562
N         -16.50438940982481  -20.99130025535856    2.30628136946826
H         -15.52283372049691   -0.98294920716744   -5.10023929749478
H         -15.33617964579368   -5.89950913174127   -4.49828595112572
H         -13.41838374410666   -0.73087650885332   -3.88985861427889
H         -13.19376208641619   -5.67049004913383   -3.23981684451768
H          -9.01341938985501   -1.80951958495645   -0.62966209136056
H          -6.62819789470111   -5.79159480978141    1.29988824891703
H          -6.81732338153193   -6.76502229294863   -1.16427771136227
H          -8.10848710674989   -2.90175780624630   -3.58068787529691
H          -8.48198920124885   -3.81957043082967   -6.03740857040997
H          -8.81233013105434   -7.35101887670027   -2.00693061432300
H          -9.41258935227354   -8.65563061141012   -4.71015345888083
H          -9.72626062958292   -8.96765398569019   -0.82121833822196
H         -10.70665525512829  -11.35885388039431    2.02375951339483
H         -11.08929815521513   -9.87691906587536    1.10873985306835
H          -9.39434658863316  -10.40998456514253    1.27652972457240
H          -8.71698518816886  -10.07613100564277   -5.89821403476916
H          -9.00793635548422   -9.85116823205178   -9.71106939427062
H          -7.90005462477866  -10.45790174921349   -8.45240175975757
H          -9.03105836124024   -9.14313298267880   -8.06630323839208
H         -11.82655997943726  -12.70757530266226   -7.37056821930983
H         -11.91030607977569  -12.79107197589409   -4.71173686530097
H         -10.81378379641921  -13.64234689728184   -1.31734354515027
H          -9.76810166740651  -13.79193233702975   -4.20109072479979
H         -11.19755992435206  -15.89998546061183   -1.15770815249238
H          -9.60787471157877  -16.20055626804294   -5.17739785663988
H         -10.97497164899510  -20.50357512976472   -2.93557013191601
H         -12.22749066082644  -20.17943548330134    1.19404535427273
H         -11.27101643395011  -22.81188676985197   -1.55939736768499
H         -12.44795550091657  -26.78062045493536    1.78515712489618
H         -15.85721635781302  -24.21478223990459    5.34425876470715
H         -13.20033236105212  -28.09143173742097    3.76735453868048
H         -15.14774428063973  -22.90913682595379    3.40368145991048
