111
 SCF done       -228.717523521682          0.000803907283
C           4.35283367202619   -6.27262042095111   -1.58725822471708
C           5.54790526224026   -6.62277869230868   -2.14960225549045
F           6.67504762469275   -6.55875390482072   -1.43013270417610
C           5.61092792423806   -7.05529528170849   -3.49035270579182
F           6.79631759759405   -7.39200121947681   -4.01392200920006
C           4.47735556562762   -7.13035244544565   -4.25007702062175
C           3.22976367544519   -6.77679066202365   -3.69963818378083
C           3.16477416402148   -6.34043665205292   -2.34341183101657
C           1.92406643978843   -5.98835226329481   -1.76726092995213
C           0.78405910148616   -6.07655597030937   -2.52320921779157
C           0.85760518896126   -6.51428723614016   -3.87757257402156
C           2.04348028685968   -6.85213849524311   -4.46247821410925
C          -0.49810489145136   -6.53571541235258   -4.45511142253062
O          -0.81946566859143   -6.58846274520732   -5.61757144128275
C          -1.40937266890352   -6.32871689102168   -3.28325966662058
C          -0.60917051777385   -5.81585664484670   -2.18325875330484
C          -1.07562785148252   -5.18303726073905   -1.06504381396582
C          -2.43879018243435   -4.88134041852256   -0.85665964443965
N          -3.53610419991831   -4.60056982747674   -0.67138842291807
C          -0.24754294520639   -4.70318798521963   -0.02765742479072
N           0.38374822809459   -4.29598093592032    0.83917509713726
C          -2.70601286364253   -6.70400842570711   -3.26111607473565
C          -3.36162528722747   -7.44926713341904   -4.29447433568599
C          -2.92917326240505   -8.56456074867778   -4.98751827315470
N          -1.71121565367317   -9.26659548902636   -4.87905626966542
O          -1.55311310810987  -10.22084962032112   -5.61386796915244
O          -0.89390187888453   -8.91345626429309   -4.03994804895526
C          -4.00363671767156   -9.05889928678470   -5.82046113298478
C          -5.10361400080244   -8.30513291168963   -5.60144676218404
C          -4.77526736816333   -7.27062015090895   -4.64863853385715
C          -5.57898157928307   -6.23345278233079   -4.23433951360074
C          -5.13399713261858   -4.93096897831159   -3.83953387065032
C          -6.19982050107443   -4.08487649840083   -3.83639845802620
C          -7.38889098690840   -4.83137863405272   -4.13622315152330
N          -8.66660408145493   -4.24323358728465   -4.16591256920587
O          -8.74288978511877   -3.05589686594846   -3.91486501153074
O          -9.62681062322698   -4.94266293351782   -4.45954204683157
C          -7.05462303151048   -6.16978414477054   -4.32875698153591
C          -7.96008472669612   -7.24934593360541   -4.39196883756838
C          -7.65625118388476   -8.54002588136181   -4.08411041326205
C          -8.52801168950449   -9.66593434450430   -4.09209190399492
C          -9.88548551653211   -9.75385857309780   -4.56242213223170
C         -10.72056939709923   -8.82841818029836   -5.13975838297654
S         -12.31175092547806   -9.41919091080979   -5.32573167818623
C         -11.90280562596241  -10.93856735872400   -4.67339201160288
C         -10.57328428784669  -11.00874486953305   -4.33333589829976
C          -9.80031909940855  -12.11385990478098   -3.85376074623057
N          -8.54620663201540  -11.88823760244719   -3.48787486514798
N          -7.98721840843250  -10.74703367550289   -3.53609113501573
C         -10.23759911753224  -13.47390037572386   -3.77219678101790
C          -9.66197945913978  -14.42269232272600   -2.95804790275403
C         -10.30401754150569  -15.67780855285427   -3.17679869849665
C         -11.32803988622748  -15.43337983933761   -4.20868540828518
C         -11.27926164152705  -14.11832408619366   -4.55209185297688
C         -12.19506942506071  -16.37512590107245   -4.77423859847356
N         -12.92122683624814  -17.12083967478443   -5.25978669530255
C         -10.01262296696468  -16.88156215660081   -2.57975884692717
C         -10.62950974562259  -18.14479864994883   -2.80847695987521
C         -10.04269927577676  -19.10200114385426   -2.00477275224439
C          -8.97591576503539  -18.44294572528241   -1.25176383244855
C          -8.95289547987809  -17.12734749364551   -1.58219575947986
C          -8.05315161622202  -16.19030464979350   -1.05749151226472
N          -7.30392950042223  -15.45157405758731   -0.59807100894963
C         -10.42126709776286  -20.47146345469736   -2.02006170763448
C         -10.18760408812370  -21.46215864223658   -1.11098832488861
C          -9.59744223474046  -21.29980138893032    0.16093852040517
C          -9.34758001512735  -22.25325640995259    1.10407960971128
C          -8.35815402569600  -21.93208992015620    2.17519961302867
O          -7.94839506412181  -20.83254276265966    2.46445140781514
C          -7.95234975016072  -23.23568223405490    2.73076257540048
C          -6.97720532090043  -23.51033650619859    3.64616005960604
C          -6.73219393997453  -24.85423818492202    4.00508128937663
C          -7.50305635718766  -25.89051091986879    3.40174652873924
C          -7.24759181279024  -27.22991709683141    3.75793726386947
C          -6.27412227567257  -27.52625812062585    4.67041678444104
C          -5.51253475061825  -26.50037758694546    5.26664559926603
C          -5.73632564696699  -25.19167593096548    4.94234103866648
F          -4.56425535620002  -26.82088716871415    6.15524550018061
F          -6.03278852259950  -28.79866310221912    5.00720134114475
C          -8.51066910190417  -25.57480383777601    2.46144268527843
C          -8.73732951128704  -24.26456571988031    2.13493678545308
C          -9.71320136692349  -23.64652194869984    1.23751421435777
C         -10.87133915742984  -24.23898142215173    0.80808476422423
C         -11.93354776408165  -23.54901935514414    0.18556654985291
N         -12.84356560045562  -23.02746667964118   -0.27962370970613
C         -11.18821370564700  -25.59422264481107    1.04155716851251
N         -11.48489527899770  -26.69276901065485    1.18974465626739
H           4.32252407968855   -5.94417165034209   -0.56007333649450
H           4.54219620354279   -7.46475820392870   -5.27358602235276
H           1.90179776486057   -5.67162673236792   -0.73652088713200
H           2.07429047761585   -7.18726489718283   -5.48771584835768
H          -3.31680379537932   -6.48035598515290   -2.39477018314466
H          -3.89283526898219   -9.89357001848405   -6.48554388744940
H          -6.04407756801586   -8.37971063967266   -6.11075401491184
H          -4.10745264109427   -4.65112178187222   -3.70848482641586
H          -6.19504001601099   -3.02836651963693   -3.64532502452396
H          -8.98278632811671   -6.96920921539652   -4.59188699462768
H          -6.66563384422192   -8.78580299519040   -3.72565970550543
H         -10.51896998845416   -7.82437864126883   -5.45034551307861
H         -12.65642446038855  -11.69137102229147   -4.56547647546506
H          -8.86907829608745  -14.23860654407288   -2.26123315976912
H         -11.87289383568538  -13.64668969653046   -5.31223297275509
H         -11.44663073312886  -18.31277357256131   -3.48274499318293
H          -8.27601367094600  -18.91897951825264   -0.59181736168362
H         -11.00101122143128  -20.74957231064765   -2.89255670872797
H         -10.50524384278073  -22.45694726680393   -1.38856212241378
H          -9.23860648315084  -20.31602279385372    0.43393663195630
H          -6.39946315554746  -22.71297104773335    4.08812378792807
H          -7.82297162498856  -28.02724834571932    3.31417018591746
H          -5.14536844005159  -24.41808983227019    5.40699836065607
H          -9.07094775901535  -26.38029302987913    2.01434583657611
