125
 SCF done       -244.746400993498          0.000829328650
C         -19.27976819955325   -7.81310732892025    1.45357595951213
C         -19.89709941848217   -9.02072382186335    1.28386342181407
F         -21.22086008934825   -9.12881157077794    1.44434105945641
C         -19.15061942266925  -10.16593955596190    0.93826981909512
F         -19.78122106197463  -11.33604164064197    0.77787670892023
C         -17.79686389397422  -10.08733363472367    0.76837017218295
C         -17.13154589210965   -8.85727436893595    0.93707358678640
C         -17.88530289977428   -7.69795085299090    1.28369932531234
C         -17.23984873595971   -6.45151415862124    1.44986508046215
C         -15.88371496763021   -6.36721507375858    1.27267141625789
C         -15.13647706500615   -7.53241532345632    0.93922710739761
C         -15.73314897528478   -8.74976764612917    0.77313792606489
C         -13.70687592542461   -7.19200311998831    0.83396444810938
O         -12.78800532355021   -7.95962949212981    0.64368660820188
C         -13.62765834213354   -5.73240809080250    1.11410223332831
C         -14.97007054652445   -5.23283441317753    1.34059695723451
C         -15.32157437426067   -3.91685431312901    1.47195994061542
C         -14.41033106373004   -2.84486826420302    1.35347539308675
N         -13.72288241090436   -1.93802627558664    1.20648417241838
C         -16.64385500826537   -3.46953648725196    1.67769457266767
N         -17.70068562385509   -3.05739167777114    1.85022100860510
C         -12.45397292452959   -5.06877321747352    1.29689460482092
C         -11.18733406230825   -5.58001291400670    0.90204433937085
C         -10.03115874456759   -5.63800424923280    1.66396320620530
N          -9.89956496704176   -5.17751482787639    2.98726558695317
O          -8.79615584602807   -5.23087150860200    3.49582038618296
O         -10.89942825549020   -4.74740903848600    3.54019018397069
C          -9.01208218493937   -6.33351619695832    0.93434253035204
C          -9.53896007735672   -6.74056549438732   -0.25423338275852
C         -10.89059686838064   -6.27482820410806   -0.35073764348913
C         -11.74033275362584   -6.31377315116409   -1.44417398908867
C         -12.71159171587908   -5.33804302796540   -1.78415860812790
C         -13.27436999060209   -5.68392001090194   -2.97960544931472
C         -12.72987558955286   -6.92757032906966   -3.42725111885738
N         -13.22257722326523   -7.50852861228901   -4.60216646264696
O         -12.66801246446071   -8.48947933400508   -5.08516174020854
O         -14.20743937477868   -6.99233833482378   -5.10529151408861
C         -11.77780848315733   -7.36783817363274   -2.48594180603122
C         -11.11545893250356   -8.57784255431523   -2.26188886912634
C         -11.03610324256689   -9.67043781282629   -3.09710830178147
C         -10.37659639614878  -10.85174410624888   -2.76522671332870
S          -9.51244985439536  -11.06504223765848   -1.26134095543071
C          -9.07304657685828  -12.69210882752078   -1.69408168799024
C          -9.59034996821847  -13.04163574444060   -2.95535548677316
C         -10.30612863290398  -12.01721613346906   -3.55404578158697
C         -10.91742412973604  -12.14269524207219   -4.90557023453579
C         -11.09368600839795  -13.62037344347727   -5.28143130004437
O         -12.05015661635913  -14.28745418593404   -4.48700784119565
C         -13.38903316991114  -14.03564045824479   -4.84321400704059
C          -9.75228473817308  -14.34656280584386   -5.08110460527808
O          -8.78757974739307  -13.65927177384980   -5.84795478744934
C          -7.65061489897611  -14.41792331774523   -6.18418394098144
C          -9.41449745681753  -14.38334173287586   -3.58321266490985
C          -8.28700111468647  -13.50175092178018   -0.86147784289559
C          -7.72372300221601  -13.09775684811422    0.31830690198298
C          -6.89851459468152  -13.91827876752910    1.11324867938275
C          -6.56759802143247  -15.25080088961425    0.92554769627495
C          -5.67896635241911  -15.66269016965181    1.94779818296909
C          -5.46318021350521  -14.47909221808023    2.80874805966343
C          -6.19617041551603  -13.45515120669676    2.30508063139548
C          -4.61553528426151  -14.41052453942697    3.92042138815070
N          -3.91279449853839  -14.34619106330321    4.82719310055805
C          -5.08684331365174  -16.89753356645434    2.09928049216795
C          -4.16866109442071  -17.28543228087148    3.11479887292920
C          -3.69157252618540  -18.54813003451335    2.83823173242759
C          -4.36389702523080  -19.02425528640727    1.63901318433513
C          -5.18963705569487  -18.04545407601706    1.18269051076156
C          -5.97811242514502  -18.11464745930861    0.02961060745303
N          -6.62843926941328  -18.18244599794740   -0.91554021905748
C          -2.74004153142585  -19.30312916282228    3.56957535103238
C          -1.79469476286562  -18.86198280396966    4.44254347699191
C          -1.17126072726768  -19.84627101693793    5.37924343016438
O          -1.24574724848871  -21.04983621619808    5.30634517994197
C          -0.51197051555971  -19.03181428147936    6.41619275733292
C           0.09799272688869  -19.43776018776643    7.56871905401589
C           0.63978579741966  -18.46438907606496    8.43720153247319
C           0.52292485697307  -17.08365605098522    8.10127945044231
C           1.05557241870590  -16.11738991101701    8.97833852792095
C           1.68065388555021  -16.50359926013626   10.13065421023118
C           1.79870055784132  -17.86949644741633   10.46016181779642
C           1.28884505278576  -18.83030910674699    9.63273975456644
F           2.41636469241859  -18.21850347675067   11.59583887404981
F           2.18972864049892  -15.58573756894091   10.96109442762092
C          -0.11095786051049  -16.69344913912456    6.89966039623608
C          -0.60720998379594  -17.65580681744211    6.06145381011217
C          -1.26204823150425  -17.55060768607811    4.75915500533881
C          -1.14742320209088  -16.47367141484089    3.92138240999584
C          -1.59581017288402  -16.43968081171256    2.58666518129148
N          -1.91504350340184  -16.35230372070438    1.48707991370473
C          -0.47238430819100  -15.28139047553789    4.26525692231317
N           0.07709187899593  -14.29842794610706    4.48320622173498
H         -19.86626610786288   -6.94656868518168    1.71608173292786
H         -17.24009932553112  -10.97291686177051    0.50488753701890
H         -17.83477192582651   -5.59303149659544    1.71704072508238
H         -15.14513017042844   -9.61837673278887    0.51811050225894
H         -12.44592882463714   -4.12314497454068    1.82763463780759
H          -8.01618926715958   -6.48991394907474    1.30275660600540
H          -8.99906032209583   -7.21523297580795   -1.05110157619504
H         -12.88438433301831   -4.42714374650011   -1.24357379353926
H         -14.01132367396005   -5.13258598292509   -3.53352346084859
H         -10.63588258307866   -8.66418808710922   -1.29509693844410
H         -11.49882926773127   -9.62405092399101   -4.07228135531364
H         -10.24678186368341  -11.69232828943757   -5.64190932541015
H         -11.87171735798639  -11.61819778144540   -4.95678119109719
H         -11.37640758035066  -13.68138582344445   -6.34324762229483
H         -13.99432250623799  -14.69240279011567   -4.22165840767544
H         -13.56713466749212  -14.26690541016036   -5.89941015424965
H         -13.67787811307223  -12.99654435527390   -4.65453754868486
H          -9.85154904446780  -15.38157250487990   -5.44114698632092
H          -7.05339445228657  -13.78959821316648   -6.84167827698629
H          -7.93012895519965  -15.33667841490736   -6.71221053034132
H          -7.05460626608633  -14.68294122808393   -5.30437885481809
H          -8.39400559269471  -14.74443217841121   -3.44643894991646
H         -10.09562741839833  -15.09134927590704   -3.10427659367156
H          -8.10773460566492  -14.51029738030936   -1.20554172038447
H          -7.89159994875591  -12.08305887823238    0.65774942246754
H          -6.92272963990115  -15.89249249497671    0.14471498632352
H          -6.25172795338911  -12.45520132939429    2.69444839833226
H          -3.92791541429208  -16.69332409015188    3.97497563836041
H          -4.19450835646431  -19.98339192786807    1.18575585030802
H          -2.79787183473872  -20.38324845088295    3.46600533692332
H           0.16641108008315  -20.48663320276642    7.81408969833041
H           0.97679356959369  -15.06845758237237    8.73903833773509
H           1.38677822412749  -19.87092272515656    9.89966988900516
H          -0.19996661991436  -15.64242923825980    6.67646543993241
