99
 SCF done       -211.630653632050          0.000533364869
C           4.32416061412081   -3.86039041271690    0.92482541420810
C           5.36911369387377   -4.65528191029958    0.54471614841436
F           6.62906906401719   -4.24186070673932    0.72421865071408
C           5.13586124022145   -5.91697002774977   -0.03989351769783
F           6.17877256934030   -6.67375612599046   -0.40270677772883
C           3.86000415383704   -6.36590622211530   -0.23651072990095
C           2.76224652489741   -5.56948990071879    0.14388212014823
C           2.99648286445962   -4.29408950002541    0.73635968238814
C           1.91041252182305   -3.47895229104988    1.13009742225102
C           0.62987590272420   -3.92427237329368    0.93366295649735
C           0.40575644223973   -5.19514795695866    0.33136535812549
C           1.43421681026706   -6.00722816013108   -0.05311257085969
C          -1.04270159478022   -5.42856387855865    0.21336365098224
O          -1.58518877374826   -6.43024447448996   -0.21317742434044
C          -1.69093045132430   -4.19514013421850    0.69412625875043
C          -0.66454523724066   -3.32680962827471    1.24793982026637
C          -0.87102508734897   -2.21124117473879    2.01114761794330
C          -2.13495472560219   -1.76262987241841    2.45781124569495
N          -3.11755632940998   -1.37642062412406    2.90624494312546
C           0.17204744889924   -1.40888111556784    2.52196049404131
N           0.98373921649444   -0.72133229081367    2.95198509095513
C          -2.99980952319447   -3.86052016245383    0.49795602355053
C          -4.04048364038275   -4.63610262249768   -0.05250776079978
S          -4.02551970974137   -6.33971519166411   -0.44500958099250
C          -5.69254407194105   -6.32378152804798   -0.96133358875126
C          -6.22768547725278   -5.04058867585918   -0.84431749418401
C          -5.30028868964542   -4.11649165989681   -0.33450830197404
C          -5.87631203650633   -2.76849943404370   -0.25903500341807
O          -5.31957224674122   -1.74379947057610    0.04259363689882
C          -7.32745584301104   -2.92353652573988   -0.68370681533785
C          -7.50847720264867   -4.37446410782811   -1.10534489655971
O          -8.52136738160680   -4.84514102933660   -1.56444802600374
C          -6.23718052358846   -7.53638351241495   -1.44705317183321
C          -7.47892553587386   -7.68251402415288   -1.97705585115510
C          -7.96481816032874   -8.90209098335032   -2.50085909162919
S          -9.52708705703726   -8.97592864832876   -3.28155401482176
C          -9.37286905811147  -10.66598259555047   -3.68485909216810
C          -8.15739861182112  -11.12770283090806   -3.20161233614256
C          -7.37682420463767  -10.15610496837880   -2.55251332347124
S          -5.88101709078576  -10.86876060078304   -2.02003419947933
C          -6.39595086460784  -12.43442869017171   -2.70430466079529
S          -5.52967176931433  -13.79905306610711   -2.65996462521574
O          -7.60372216906982  -12.35905356216477   -3.27244238862481
C         -10.36828533546274  -11.33851274189421   -4.43416901786070
C         -10.28038884417163  -12.64816495989094   -4.77880533795484
C         -11.20874129532389  -13.34141517280790   -5.59544581071754
S         -10.90781236874147  -15.03021976020258   -5.91009005870704
C         -12.28816695653602  -15.19468412571038   -6.96494518360140
C         -12.94986571355073  -13.97665713579344   -7.04807857049628
C         -12.34742124820575  -12.94301972244478   -6.28482571641250
C         -13.08516240496533  -11.68873505749129   -6.45048437975117
O         -12.89937906768774  -10.62548190184509   -5.90791651771114
C         -14.18001062997940  -11.97581995404433   -7.46113087832249
C         -14.12478291095825  -13.46138157138233   -7.75766170204739
O         -14.92235620641185  -14.06174014253837   -8.43916692878672
C         -12.48288456654269  -16.43948940015160   -7.61597661150982
C         -13.43932387915726  -16.67344046289181   -8.54753510696555
C         -13.52792941974461  -17.88178333578656   -9.28111358216847
C         -14.20519870497581  -18.03856356371159  -10.45035140482221
C         -14.53918302297613  -19.39551553914106  -10.96272441443138
O         -14.07363537436609  -20.44587823526842  -10.58793062910307
C         -15.59296350175367  -19.17437678427312  -11.97377017499239
C         -16.31808348982792  -20.09890707592666  -12.66902701477970
C         -17.30142581604916  -19.65619989102918  -13.58149013483510
C         -17.52187299357179  -18.25773689147275  -13.74742091784582
C         -18.50826908823726  -17.82270610700420  -14.65543332108845
C         -19.23748450795265  -18.73252234548107  -15.36813235276444
C         -19.01726884883460  -20.11530588651221  -15.20450016732460
C         -18.07030521066439  -20.56891431950924  -14.32973625635053
F         -19.74734096074224  -20.98392866539822  -15.91619502939187
F         -20.17196780612089  -18.31756315506561  -16.23271848248273
C         -16.75398697044543  -17.32341408494512  -13.01572955852545
C         -15.79540425139991  -17.77445297509181  -12.14779678431351
C         -14.83486064878410  -17.05736929218691  -11.31194662191279
C         -14.45825282223890  -15.75191121701905  -11.48021071719557
C         -13.33018005640453  -15.14841915664142  -10.88283918283826
N         -12.39345457786476  -14.61091114684351  -10.49393345010025
C         -15.09312156886909  -14.86598634357640  -12.37740930012168
N         -15.57740639835065  -14.10576493221216  -13.08740119246281
H           4.52076297201240   -2.89863770371223    1.37227001806785
H           3.69797868924791   -7.33349058767790   -0.68510936015107
H           2.11955574500932   -2.51822570138649    1.57214636476342
H           1.23631523330987   -6.96844889514947   -0.50251182273985
H          -3.31432775034098   -2.85276906219002    0.74970663377121
H          -7.58353029405173   -2.23943624487683   -1.49514600925926
H          -7.99528746565455   -2.68277911838325    0.14683560134220
H          -5.57005579467097   -8.38788631729016   -1.39855625186501
H          -8.14707340873860   -6.83426011066676   -2.03531517852984
H         -11.21449481115215  -10.74490850033262   -4.75088939819721
H          -9.43872197500209  -13.23557885974088   -4.43722334491165
H         -13.99945615177145  -11.40928061704883   -8.37858696190236
H         -15.16232183132330  -11.67004733287310   -7.09573159658739
H         -11.75086475694630  -17.20623847341074   -7.39440016249070
H         -14.16566034912529  -15.90222230957485   -8.75971985560571
H         -13.06033340805604  -18.77193613948666   -8.87386153937383
H         -16.14228718388794  -21.15420825368464  -12.52590311372495
H         -18.68723820840138  -16.76806846819872  -14.79515504463173
H         -17.91387672865996  -21.63012920312383  -14.21558325459019
H         -16.94821105443507  -16.27188237695696  -13.15392450488263
