101
 SCF done       -205.665321579731          0.000736347999
C         -12.55026638155757    2.83759994376769   -5.39245324851560
C         -12.38348444041274    4.03771424391213   -4.76022906672422
F         -13.15129312717082    5.08492104140837   -5.08944009126777
C         -11.40593766693299    4.19004279328472   -3.75665016864612
F         -11.26635214190064    5.37776691079554   -3.15168245173245
C         -10.60763560553621    3.13970578378848   -3.39961315056580
C         -10.75460805109433    1.89039384093690   -4.03292960897879
C         -11.74250957316433    1.73518046042678   -5.04836628425666
C         -11.90433067731477    0.49215187965089   -5.70241847903536
C         -11.09875904917442   -0.55988173522309   -5.35511979843377
C         -10.11726456045797   -0.39629385162556   -4.33871336742923
C          -9.94216974577878    0.78850002356347   -3.68418109583223
C          -9.36945827417157   -1.65572687399569   -4.16416264531720
O          -8.51628848742386   -1.87514304495549   -3.33355144772041
C          -9.97320923041841   -2.61119954701912   -5.13012385573534
C         -11.02128252264924   -1.92838955400754   -5.85552219586775
C         -11.75405222539815   -2.44232818609104   -6.89647525742981
C         -12.73916736686865   -1.71990060191845   -7.60099352941096
N         -13.55950437525865   -1.18824162025671   -8.20257820603567
C         -11.61924933697733   -3.74917199512796   -7.40761539514755
N         -11.56113756027702   -4.79829120100943   -7.87239935041760
C          -9.72607362501669   -3.95696706414038   -5.17569818401287
C          -8.60640882583724   -4.64460534722775   -4.66213374157449
C          -7.33142253413817   -4.17141117639997   -4.35728329966915
N          -6.71340650364961   -2.96497231862313   -4.77013488143382
O          -5.69945809789816   -2.63741715314977   -4.18989074713181
O          -7.18602894901164   -2.37020020178988   -5.72091991103693
C          -6.59310587235681   -5.18986349144804   -3.68344737556120
C          -7.39781809362235   -6.27617614820841   -3.52000806990007
C          -8.65427896806229   -6.02721120558034   -4.17228898268793
C          -9.64920578353231   -6.97256113696866   -4.36345303353357
C         -10.51622824738780   -7.12806811979628   -5.48251058570592
C         -11.13377583049428   -8.34158480356574   -5.38632127032008
C         -10.74289701026426   -8.98848163617699   -4.17046421400767
N         -11.29541900716246  -10.22946094324764   -3.81618452134768
O         -10.81537909035995  -10.85624318651796   -2.88108126180341
O         -12.23349468854330  -10.63194124064915   -4.48123925867529
C          -9.84869479554830   -8.15595872974635   -3.48540659541784
C          -9.35775997493576   -8.11573715571805   -2.17181251197112
C          -9.30613316110675   -9.10533269082283   -1.22047121411475
C          -8.72115012943584   -8.85070926248087    0.03108946172354
N          -8.57162802492317   -9.78765071592026    1.02211158341369
C          -9.08437063934147  -11.13865511169499    1.00117885322439
C         -10.58999957439332  -11.17822210091287    1.24390494239563
C          -7.87417999281661   -9.28299498375206    2.13631825650621
O          -7.61683784768913   -9.92741897586269    3.12747390666375
C          -7.58254467272827   -7.90820416219948    1.77101535022133
C          -8.11813610053133   -7.66385072874095    0.49590307000321
C          -7.82222485332399   -6.28602244519258    0.15954329396909
O          -8.12312898449360   -5.59778322912186   -0.79434341429950
N          -7.06774612992897   -5.80495196930585    1.25111102304303
C          -6.65785757377361   -4.41998239564413    1.27910010632198
C          -5.36076241832266   -4.20214508037909    0.50367461746924
C          -6.91669134432389   -6.75890181661066    2.21711882343923
C          -6.23926291086447   -6.66388334898568    3.46358874298327
C          -5.23681735164191   -5.82808945803710    3.80252350940196
C          -4.62640811980338   -5.82000893674893    5.11089861389197
C          -3.28004030247174   -5.65925720777500    5.30362701941219
S          -2.81960647433668   -5.78414738593189    6.94754561203960
C          -4.44467998010955   -6.01637891065736    7.42141951262758
C          -5.30773399479688   -6.01398273196508    6.36108098043577
C          -6.76931931097939   -6.01292192697208    6.52526910930951
O          -7.56534092626223   -5.59311070634251    5.72425183818996
O          -7.11707239949382   -6.50297064377037    7.74039478394698
C          -8.43994296581080   -6.51315752880070    8.07168180019654
C          -8.84491954357221   -6.96821174166486    9.25995254593408
C         -10.22259481322113   -6.98782659453907    9.65954566706218
O         -11.20564864982660   -6.55195903882332    8.84013428651522
C         -12.38104999079857   -6.67925218129405    9.47506270175538
C         -12.18390517465649   -7.20028855013622   10.72134899556775
C         -10.78884809215903   -7.40254370467879   10.84653190543736
F         -10.13649370788274   -7.89329527673866   11.89909821736154
F         -13.11712531806325   -7.46179615421678   11.63175540115186
H         -13.30200693904006    2.73867876632914   -6.15990238399145
H          -9.86310953409880    3.27269033555683   -2.63045223409210
H         -12.66364517861671    0.40520870959113   -6.46269533028541
H          -9.18750325633404    0.88565748550730   -2.91870606916827
H         -10.49113950077818   -4.58071976858705   -5.61323876566782
H          -5.56687719841804   -5.08182519625370   -3.38722432881483
H          -7.10258581488769   -7.22142220618373   -3.10744384583612
H         -10.57953216256363   -6.47903369451466   -6.33488224568750
H         -11.80855561480936   -8.78094000318009   -6.09708528964128
H          -8.96661418987290   -7.14899563235763   -1.88595772486122
H          -9.67455915081829  -10.09588180662671   -1.43601698713417
H          -8.56429774665745  -11.66979110066671    1.80295949048607
H          -8.83928540099797  -11.60728808880271    0.04473872288046
H         -10.83031714816402  -10.70476445909618    2.19297686226481
H         -10.92511071298241  -12.21067246972848    1.27504978831345
H         -11.12570156752806  -10.66582721515727    0.44887930311300
H          -6.57125404727816   -4.10186326030134    2.31969780013867
H          -7.45280432341318   -3.84549151851742    0.79392890875416
H          -4.56450933809580   -4.84758337288968    0.86979821068380
H          -5.04753096925384   -3.16625123311253    0.59498445952388
H          -5.52524150673695   -4.41791209684708   -0.54876688409473
H          -6.56043574816708   -7.41537271103432    4.17270673988914
H          -4.77837983320879   -5.17657943311421    3.07336737845916
H          -2.53063563181659   -5.51385656613660    4.55059952244254
H          -4.69439441140173   -6.11588779804810    8.45894877154894
H          -9.11791576459235   -6.13004333786526    7.31969049801261
H          -8.13691552546366   -7.34372843698821    9.98250079268463
H         -13.27100401273899   -6.37661384544827    8.96217207689743
