115
 SCF done       -240.079134857744          0.000779881968
C         -12.31450975278331   -0.20532582468868    8.02390682116239
C         -11.49397270668810    0.71981999646439    8.60530755468528
F         -11.94695582870162    1.48933972359901    9.60211046268448
C         -10.16308542218486    0.87621801751785    8.16542394954676
F          -9.38304670251997    1.79066554520010    8.75424315743385
C          -9.67221124812659    0.10525082242194    7.14925153071703
C         -10.49245370198481   -0.85814418060439    6.52993187336353
C         -11.83822778922984   -1.01779056757426    6.97464118518635
C         -12.67700155701188   -1.98259939963136    6.37407111711278
C         -12.18206548684897   -2.76726383653250    5.36479819757596
C         -10.83569852081597   -2.60188982381519    4.92697826530861
C         -10.00596998209060   -1.67178637714817    5.48307069206266
C         -10.55195161861723   -3.56818894935456    3.85171031646961
O          -9.63852341747019   -3.57103405802282    3.06288759649219
C         -11.73612290278350   -4.48923380153570    3.85226572374923
C         -12.80112832885746   -3.84440742821056    4.60307807683589
C         -14.12874386272242   -4.16728532875168    4.56769286193750
C         -14.65742824409535   -5.16689348596268    3.72294629600465
N         -15.11381125496782   -5.95846814087404    3.02855995888708
C         -15.12308996616623   -3.50060441184931    5.31548600102987
N         -15.96606098637210   -2.99010627757136    5.90212660343264
C         -11.70449511864548   -5.74237654394515    3.35311063974258
C         -10.52158250080021   -6.38312004746972    2.85543862760831
C          -9.26644418997516   -6.45678153273281    3.43024980175715
N          -8.81274913481200   -5.92098770768262    4.65083445062698
O          -9.57730684847873   -5.24708444544423    5.32906606212972
O          -7.67607804216273   -6.19065475789601    4.98665641308826
C          -8.42943854747989   -7.32968158958184    2.63917060704124
C          -9.16717676420130   -7.83488286212819    1.62328781749456
C         -10.49919439221179   -7.28987109013336    1.69937937664226
C         -11.54305426074320   -7.49464666741070    0.82530595653549
C         -12.64372197004525   -6.61891585678989    0.59209326045567
C         -13.32276457857810   -7.05873561252718   -0.50145628599666
C         -12.71540297218692   -8.26388012972009   -0.99361112099567
N         -13.27825376672970   -8.93547643171582   -2.08073083090756
O         -14.40252480241165   -8.61019315978809   -2.43232437148648
O         -12.63709946057599   -9.80776884917208   -2.65532553785752
C         -11.63696459515530   -8.60248396787005   -0.16578608643504
C         -10.89754421121849   -9.78279101717021    0.02025780252841
C         -10.69411437065556  -10.81707506199713   -0.85888287140791
C         -10.04655160745106  -12.01473952539114   -0.51137516661051
N          -9.90105391680958  -13.01679772531780   -1.43239329030316
C          -9.42874386446373  -14.13082801811637   -0.83939862191356
C          -9.17439573904482  -13.82258376056581    0.52390771505589
C          -9.55020965644192  -12.50452200688547    0.71679684960835
C          -8.53210290785610  -14.78854374323522    1.44391942511404
O          -7.80345176060655  -15.65150000715724    1.01126308407717
C          -8.85288693259358  -14.60693436376836    2.89591175278320
C          -9.32629635163575  -15.38798839460980   -1.50916670029878
C          -9.85080957787976  -16.60584881475318   -1.13125727894271
N         -10.56051060308573  -16.91802543736206    0.04678599379592
O         -10.74300655586116  -16.03234448989287    0.86784000168714
O         -10.97998570691604  -18.05139509052123    0.15948426765965
C          -9.71466159752276  -17.54592822542737   -2.22350330559818
C          -9.13144224231181  -16.92116710424083   -3.27243938636281
C          -8.77959167500379  -15.58499141225377   -2.86517111872116
C          -7.85384003396085  -14.76689449817670   -3.46375924145214
C          -6.99018787437513  -13.83357921798611   -2.78297006943151
C          -5.95202813938476  -13.53521486144204   -3.60003578867148
C          -6.16384002190717  -14.18292511273941   -4.87413958233055
N          -5.31368804557692  -13.99652837693525   -5.98756787199693
O          -4.31541857211463  -13.32522494032606   -5.81803120783221
O          -5.63204118207550  -14.51681664443466   -7.04169056902323
C          -7.33586748495229  -14.90962388307314   -4.83918007649776
C          -8.01573131628248  -15.51934338059017   -5.93953554931751
C          -9.35428567242035  -15.41218422477950   -6.15101360927066
C         -10.15977780504982  -14.54640325872435   -5.36619939590536
C         -11.50028337818057  -14.33903643968296   -5.31340587531689
C         -11.96146780448377  -13.14320016785361   -4.56392413104150
O         -11.29461119609820  -12.52692035810787   -3.75092308093575
C         -13.32528684597704  -12.88921290118813   -5.01056653618696
C         -14.13977249956414  -11.83491664378145   -4.70497944479994
C         -15.43063709909659  -11.78739773632813   -5.27150879281046
C         -15.84795911340244  -12.83253489310496   -6.14948422476603
C         -17.13620372998394  -12.77046409160532   -6.71588948713845
C         -17.96713800342756  -11.72515475484077   -6.42057352809311
C         -17.55305040273780  -10.69602893628451   -5.54852813644647
C         -16.30859466186040  -10.72369269586680   -4.98298710559378
F         -18.39557069412683   -9.69248636559108   -5.28374753826243
F         -19.18975768464894  -11.66981553441780   -6.96021634903376
C         -14.98326639048826  -13.91479409164874   -6.44121319593777
C         -13.73692985229621  -13.94914058310366   -5.87493251848124
C         -12.66116968813916  -14.93638239819321   -5.94595891988922
C         -12.77962938317430  -16.23901828707900   -6.34500499784190
C         -11.78242055720333  -17.20459592237553   -6.09168513686849
N         -11.00853252617388  -18.01081928205141   -5.83224512355187
C         -13.94502680971747  -16.77315131941838   -6.93515294799379
N         -14.86637500705659  -17.23778022101983   -7.43563452307055
H         -13.32984289330047   -0.31176296621307    8.37272342813819
H          -8.65158505249196    0.23615504071445    6.82551149751558
H         -13.68728012725229   -2.08953612806681    6.73627684352392
H          -8.98827781228401   -1.56839796418255    5.13955708548333
H         -12.60151341277830   -6.34972597923043    3.35083836980490
H          -7.39504744327160   -7.51014339247689    2.86104849922093
H          -8.80293358721426   -8.44626923573170    0.82103151881338
H         -12.83218978803995   -5.70829916255756    1.12450691142486
H         -14.17906195902200   -6.60306921551606   -0.96249392554131
H         -10.44373413824109   -9.87404332560439    0.99801572734733
H         -11.05999395729296  -10.74929561525970   -1.87460184270310
H         -10.27286675150377  -12.93646639957100   -2.38150239682402
H          -9.47260691910189  -11.94646763299713    1.62814149053037
H          -8.60760614844343  -13.59776991177952    3.21681564523685
H          -8.30248184080963  -15.33075259897247    3.48991085338979
H          -9.92183600751242  -14.76263799456976    3.02825201053498
H         -10.04721242242561  -18.56485233480799   -2.16750209754659
H          -8.87313011174552  -17.36346838263667   -4.21370505839030
H          -7.09364574519455  -13.55563848435430   -1.75252371836739
H          -5.09712319494801  -12.92221225169947   -3.38644597546777
H          -7.39874153928629  -16.02319522518942   -6.67160987388382
H          -9.79535280407438  -15.92794290589639   -6.98961802888982
H          -9.60714265225689  -13.84596783528155   -4.74646093553948
H         -13.79031504545246  -11.05349449258726   -4.04697173188183
H         -17.47499043719139  -13.54853937808093   -7.38208777064049
H         -15.99965212938146   -9.93337009608752   -4.31487874812188
H         -15.32677606105507  -14.68636091014818   -7.11223941008352
