116
 SCF done       -261.892133739418          0.000497454589
C          -3.92499192927886    3.37239752088377   -1.19766134797190
C          -2.97988276097175    3.85112069046131   -2.06084541731859
F          -2.76137820136204    5.16686141001788   -2.15688309913837
C          -2.22425760675888    2.96801454564068   -2.86074869119294
F          -1.30692926643562    3.46662900072103   -3.69656672960311
C          -2.42569383709159    1.61813406231732   -2.78645053342084
C          -3.39439434384413    1.09380887294546   -1.90824531643665
C          -4.15757262123671    1.98531332035180   -1.09747259596280
C          -5.13258024538341    1.48317790236840   -0.20746978421749
C          -5.34131160670899    0.12948721534519   -0.12841984715766
C          -4.57639055391670   -0.75230263298459   -0.94529651690892
C          -3.62771231420784   -0.29532256881453   -1.81591972383514
C          -4.98556818099995   -2.13973955729440   -0.68871137700762
O          -4.66028044886175   -3.13652470385236   -1.28872021232432
C          -5.99679694439965   -2.06007252828745    0.41485119618459
C          -6.25928177875030   -0.65184749645252    0.69139333156963
C          -7.17733322477707   -0.15455732841575    1.57176206777018
C          -8.06506067488572   -0.93934010230997    2.34076187074206
N          -8.81799382024732   -1.52040327601959    2.98230319291255
C          -7.37743558977254    1.22317169043107    1.81464055010431
N          -7.58963245256625    2.32560728606231    2.04872233323481
C          -6.55175156828478   -3.14834239604909    0.98369613488230
C          -6.08990503077442   -4.49565837951074    0.73588607502497
S          -7.20909143629906   -5.69139221435824    0.18812394602123
C          -5.99562731432485   -6.92937756112543    0.17720375003733
C          -4.77468861190959   -6.41496879992007    0.57267898840366
C          -4.83625713676628   -5.03917909788334    0.90959917406286
C          -3.69045709990838   -4.28464704492369    1.52281171855418
F          -4.11413473259851   -3.21627463184618    2.22835668657085
F          -3.01469284436337   -5.04239265527919    2.39448568407859
F          -2.80463595394244   -3.80860257026331    0.64301949303655
C          -3.49780372658825   -7.20296726314709    0.51515773242704
F          -3.51934641525556   -8.10294110418561   -0.48735711231481
F          -2.42779049813357   -6.44035565976244    0.28911529846398
F          -3.25528590929515   -7.89655092132712    1.63700248718054
C          -6.38244676586857   -8.25994980269205   -0.19191197653915
C          -5.87990226103747   -9.37987119228703    0.36964263796235
C          -6.23463512357656  -10.73337883990793    0.09460598446364
N          -6.83999053649369  -11.27294943815950   -1.01533361817852
C          -7.12251384003172  -10.64341436690824   -2.28462297967174
C          -5.85488637043225  -10.17333555519257   -2.99093636957754
C          -7.02779399253897  -12.67044372812468   -0.87511815726416
O          -7.52631047130310  -13.36818585621120   -1.73104543314666
C          -6.50873749573930  -12.97090641353715    0.43953772713517
C          -6.01928684881563  -11.76964164560662    0.99639800238427
C          -5.51266566950725  -12.06916743405698    2.31901315718961
O          -5.00400435498363  -11.37870137262674    3.17061089313551
N          -5.72696303112648  -13.46262964497396    2.46746230492667
C          -5.33329299679377  -14.10341393435395    3.70051543883720
C          -6.49711594277194  -14.21811592995756    4.68285111237145
C          -6.33110677504652  -14.00362836672226    1.35925957845591
C          -6.73968988995575  -15.33787350203893    1.09360947531397
C          -6.75439464388241  -16.40956612943399    1.92118859024276
C          -7.20286168257705  -17.69842796905271    1.51654005703863
S          -7.64540290683728  -18.05489335356765   -0.12155661885481
C          -8.01417832038586  -19.70282702597524    0.26243335066722
C          -7.76670423402364  -19.97040151736060    1.59741007004573
C          -7.32975898842063  -18.82882827771521    2.31209758019075
C          -7.06103863750763  -18.75016343864474    3.78525717828603
F          -7.72207509757830  -17.71494450308822    4.34493016632122
F          -7.41895316744987  -19.82566023952011    4.47673878143436
F          -5.75776191907043  -18.52704827719523    4.04813364560546
C          -7.73149989467278  -21.35138874359895    2.18793133402627
F          -7.79147089653631  -22.32385765135711    1.26344171899386
F          -6.58059973500756  -21.56288454354753    2.84311410585007
F          -8.72676713199463  -21.60766575114412    3.05057833046817
C          -8.55259239827795  -20.55611797945344   -0.76900292159056
C          -9.62730292385591  -21.35074658378691   -0.60117845958829
C         -10.42966935854250  -21.29448250029153    0.58486277476576
C         -11.13370281215714  -22.23561575345750    1.25219779207391
C         -11.62817666846329  -21.84524372456515    2.61564963215270
O         -11.79263666755881  -20.71751907203052    3.01076151259854
C         -11.79863526035274  -23.11122949862642    3.34245819668003
C         -12.07792247334313  -23.30668456835668    4.66480906759453
C         -12.13348710715999  -24.62544638154586    5.16571887929987
C         -11.88931294999863  -25.71861222627067    4.28359183997136
C         -11.93424723852193  -27.03254896097537    4.79252069810750
C         -12.21072695698852  -27.25045491090930    6.11287712509281
C         -12.45348720203874  -26.16836158007686    6.98394174517993
C         -12.41618360285437  -24.88296510175638    6.52158720047878
F         -12.72160102423889  -26.41302497642696    8.27262294104193
F         -12.25403940096078  -28.49860407731281    6.59440222946894
C         -11.60630274247538  -25.48486057244330    2.91893385504644
C         -11.57015805641473  -24.19763479391148    2.45031710812609
C         -11.32374469200346  -23.66953306346856    1.10926938462847
C         -11.42019048272404  -24.39659007355716   -0.04372582920651
C         -11.39334294468504  -23.84909246225357   -1.34113731871356
N         -11.41110505661245  -23.44295626277535   -2.41446814685848
C         -11.65799741003172  -25.78891758770716   -0.07879618091924
N         -11.84279109963229  -26.91703879806105   -0.17283092179875
H          -4.49312878633158    4.06171042209951   -0.59271165903436
H          -1.83950452241101    0.95587066722690   -3.40400172997291
H          -5.69089188101205    2.18329079160663    0.39261163506779
H          -3.06094600223993   -0.98840261243524   -2.41849381681760
H          -7.39590863852544   -3.05980558784478    1.65501878906279
H          -7.19556024540724   -8.31050877978181   -0.90028886324034
H          -5.17634479934202   -9.29858413015797    1.18807017674860
H          -7.82909268509161   -9.82018491621793   -2.15064242649107
H          -7.61391607913270  -11.41675261168700   -2.88365602552221
H          -5.31812480060013   -9.43710430254396   -2.39788495689111
H          -6.11509372065975   -9.72998233901657   -3.94789487960813
H          -5.19487270786092  -11.01844110864570   -3.16955712005704
H          -4.56406218695761  -13.45893277489589    4.13717865351527
H          -4.88654531255317  -15.07590076248152    3.48287156529262
H          -6.83901832031213  -13.22469243315613    4.96187475542924
H          -6.16893388369007  -14.73612077705441    5.57937855397254
H          -7.33513638383328  -14.76231122425940    4.25344516002921
H          -7.10852782669440  -15.46303095329181    0.08134171523987
H          -6.43104811095825  -16.32630778653264    2.94440531419601
H          -8.05527333401995  -20.51424079607822   -1.72752640574754
H          -9.90838779876871  -22.01618092169189   -1.40178480707116
H         -10.42903076118432  -20.33012007716048    1.09050540316587
H         -12.24568171581623  -22.46505227329916    5.31889779642253
H         -11.75347504814796  -27.87222855433015    4.13980042676685
H         -12.60234343180502  -24.06559098960586    7.20040305259355
H         -11.41088818383931  -26.33143223827644    2.28058801416989
