117
 SCF done       -244.426112552736          0.000598359062
C          -9.03914124630233   -1.25802487679351    3.34673427004838
C         -10.01376664378749   -1.68170005762309    4.20619404607671
F         -10.50466465948364   -0.84857207556223    5.13124872933926
C         -10.51413886882948   -2.99755816991534    4.13054222666366
F         -11.46839410205972   -3.38641397671662    4.98569785879555
C         -10.03274328066601   -3.87126846705609    3.19630480622232
C          -9.02793794352502   -3.46488983839082    2.29667821678965
C          -8.52232824556883   -2.13424504332058    2.37139600078290
C          -7.51832267781033   -1.70261665480027    1.47508219245103
C          -7.03742767992156   -2.57451821567729    0.53456297841003
C          -7.53930977538630   -3.90556761632423    0.47219155084211
C          -8.50923991790971   -4.34937731136807    1.32523566685885
C          -6.84698193614209   -4.64646766258850   -0.59859317109304
O          -6.99354177373278   -5.81874143837026   -0.88038069272597
C          -5.87140676287152   -3.68777683858898   -1.17284987630271
C          -6.04292801210610   -2.40633073662364   -0.51744226475047
C          -5.46196181161171   -1.22936484020067   -0.90511556463973
C          -4.65160835704746   -1.09831549910493   -2.05385887670251
N          -4.03981887231799   -0.92417797716990   -3.00908772068043
C          -5.66276902269407    0.00320675002753   -0.24949792923017
N          -5.79075269727640    1.02614336369973    0.25447719865546
C          -4.85281491038884   -4.04225169908563   -2.00509820959196
C          -4.78816612553854   -5.25708959170408   -2.73739375879671
C          -3.67914890946516   -6.09039672975813   -2.87562443323872
N          -2.42535786914110   -5.89454082648344   -2.27423110654185
O          -1.53567937664992   -6.67760374154993   -2.55476267812050
O          -2.29994715602020   -4.95273269166614   -1.50591700796158
C          -4.03304368000003   -7.23402693032924   -3.65547724315681
C          -5.35141205146951   -7.13167619734080   -3.98252791395353
C          -5.87495034564732   -5.90591242997373   -3.44502961614263
C          -7.11324204518249   -5.34139314876235   -3.74460703435595
C          -7.40058790465801   -3.97397970746844   -3.93793105630255
C          -8.65890271413971   -3.85014854097674   -4.48961170344563
C          -9.24011826760031   -5.13095543498953   -4.60993661360939
N         -10.47555558559820   -5.37850875101623   -5.20159014887975
O         -10.75609372139501   -6.54184796069764   -5.49460566144381
O         -11.20191708875647   -4.43010620732217   -5.44668369156740
C          -8.33714200335190   -6.08838603806538   -4.08026068843609
C          -8.62769974469312   -7.39711796056944   -3.73491621747689
C          -7.82079023934347   -8.19996000439876   -2.93524048260745
C          -7.94061515480536   -9.56361977587210   -2.70901371071693
C          -7.31718660454738  -10.17245303481431   -1.59855697275087
C          -7.75865422367722  -11.48534817562510   -1.47628030113153
O          -7.49023100384656  -12.38854266747416   -0.54036430482133
C          -6.56936037345631  -12.03713056379553    0.47459191324036
C          -8.68215594121135  -11.76216686827976   -2.53066736478800
C          -8.66511430397807  -10.62463575667787   -3.42573015465353
C          -8.94765495131404  -10.67956708117003   -4.77400165708616
C          -8.91540354313071   -9.64654251618730   -5.75013504709238
C          -9.36203251900348  -10.16176895015051   -6.94176207206219
O          -9.60278812306738   -9.57137547830240   -8.09324011140935
C          -9.44487849037518   -8.16329590657838   -8.15684568147606
C          -9.58277672493307  -11.60515296701876   -6.77766320562235
C          -9.31998270964680  -11.91731689549271   -5.50416423284247
C          -9.49221682693930  -12.90862934619871   -2.50558986838078
C         -10.70698712067226  -13.03425122771844   -3.12436827307302
C         -11.51656889151923  -14.18752163826747   -3.10024419457291
S         -13.14159164278966  -14.08713150050113   -3.71074069302216
C         -13.45084573365130  -15.76447798832528   -3.37405495401673
C         -12.32456544551916  -16.36502241743859   -2.83886907159664
C         -11.23385035467609  -15.49101366387269   -2.66798457584399
C          -9.97719877781365  -15.90009276557933   -2.18417469440492
N          -8.94381328580794  -16.24059738799361   -1.82241409901294
C         -12.33292986359971  -17.81563584965048   -2.46096232155556
F         -13.45381347220301  -18.15608883635980   -1.80497226150295
F         -12.28994625626131  -18.60327655587579   -3.55604334664987
F         -11.31023141814251  -18.17656395883878   -1.68976805354062
C         -14.68130822155378  -16.40392738321831   -3.70658542936989
C         -15.92970021971997  -15.88108776413778   -3.69761669704943
C         -17.02073943860868  -16.57394883377754   -4.45457538205318
O         -16.97313213334318  -17.68284747614938   -4.92483188542870
C         -18.10968822438560  -15.58420995145825   -4.54563369209583
C         -19.28980437532777  -15.67295294278782   -5.22746583213311
C         -20.18885663684370  -14.58435174156447   -5.18835140124737
C         -19.84198007949248  -13.41607979441604   -4.44771474194154
C         -20.74162601812941  -12.33140702738144   -4.41749461850565
C         -21.93076709823046  -12.40431666076855   -5.08728159778764
C         -22.27350719490804  -13.56096879255185   -5.81820221371538
C         -21.42161916229924  -14.62872601922264   -5.86845280804749
F         -23.44360751199477  -13.60310022959562   -6.46501688674014
F         -22.78431602870837  -11.37537650639784   -5.05626186876352
C         -18.61540418259824  -13.35390448993658   -3.74863326505533
C         -17.76454482759050  -14.42679754628099   -3.78926015978352
C         -16.48038325763167  -14.66114561333425   -3.13655523846960
C         -16.02359170151015  -14.00062848188511   -2.02849262620757
C         -14.91136412841400  -14.41206748145230   -1.26430356536905
N         -14.03136705521693  -14.72209880674666   -0.59607471443373
C         -16.66299753593388  -12.87306717014742   -1.46953990650659
N         -17.13325754673597  -11.94452560832351   -0.98749188430568
H          -8.66829171515271   -0.24739342815874    3.41673933346242
H         -10.42689766980269   -4.87446415797591    3.15205952713084
H          -7.14949350213405   -0.69289494753612    1.55778101547356
H          -8.87840592160691   -5.36165369752838    1.25858930615235
H          -3.98456159937928   -3.39683155785635   -2.08045352472385
H          -3.34744565539756   -8.01767001948479   -3.91433365119836
H          -5.90050010857027   -7.79757576184756   -4.62039762675944
H          -6.69826879808497   -3.17346789951528   -3.80228376409111
H          -9.13326147021147   -2.94196074939390   -4.81217170533984
H          -9.59432310843474   -7.77736151113308   -4.04167417181040
H          -7.08653340774746   -7.68984102598188   -2.32260284351403
H          -6.66368203702451   -9.64862072344716   -0.92618715452189
H          -6.45810330118334  -12.92449140610888    1.09391910266153
H          -6.95068973594609  -11.21098772470776    1.08047791902209
H          -5.60119288425651  -11.76127166474307    0.04916929752072
H          -8.61865709745437   -8.63399696341688   -5.58703382514212
H          -9.79339577432761   -7.86391149393058   -9.14288847985754
H          -8.39379553152458   -7.88681014324133   -8.03754238957893
H         -10.04252860444085   -7.67461570889756   -7.38252174735305
H          -9.87331463170226  -12.25339843020134   -7.58102899994157
H          -9.31026466034518  -12.89805045188845   -5.07479964722748
H          -9.15069755721530  -13.69528665347247   -1.84738966973347
H         -11.12260030452738  -12.18144421397960   -3.64557573390442
H         -14.60790958651335  -17.42480446169920   -4.07229912137417
H         -19.53428164403354  -16.56315426208324   -5.78660647305157
H         -20.49725364455200  -11.44071021144697   -3.86003238906923
H         -21.69863161129736  -15.50612845723531   -6.43155738465091
H         -18.37400807678854  -12.45515440901944   -3.20381385446615
