99
 SCF done       -208.398455759189          0.000318904060
C           6.30690670621279   -0.62219302624537   -0.21915866185828
C           7.45635079831734   -0.82985928724563   -0.92872729124891
F           8.34729010556100    0.15781007407736   -1.07038571354684
C           7.71880146536239   -2.08328866207453   -1.51967138014390
F           8.85278138429667   -2.25728357314876   -2.20823526596387
C           6.82742830492478   -3.11168412674651   -1.39262988157998
C           5.63375309305878   -2.92885730807835   -0.66754708685507
C           5.36682866468984   -1.66195445875876   -0.07040960353589
C           4.17451200699358   -1.45408626776217    0.65889947043321
C           3.27443676684217   -2.48029673466378    0.78461733242173
C           3.55207938996246   -3.74355990532375    0.19063725618851
C           4.69701507504450   -3.97482464336856   -0.51739207298427
C           2.45445643832989   -4.68214867990108    0.48521711427076
O           2.39972300250280   -5.85295935017175    0.18332093815121
C           1.48167114978177   -3.91118061568620    1.31067456294549
C           1.98000251755642   -2.55245519118575    1.45249035923578
C           1.31671754607450   -1.50286906960323    2.02899800067457
C           0.01671864226021   -1.56918252430801    2.57655833915411
N          -1.04453192271135   -1.54385509645953    3.01261967175854
C           1.83663392872338   -0.19299088910672    2.11586981673177
N           2.20988238351376    0.88697694336323    2.21869277748723
C           0.41329038257137   -4.45130554916083    1.95755618488370
C          -0.17091314773123   -5.73053652577984    1.73862034874260
C          -0.86497600659239   -6.44119640860408    2.68901394044549
C          -1.33333622234793   -7.66694401272891    2.11349090395286
C          -0.90813782870926   -7.63557432545934    0.70304250105003
C          -0.22286857236061   -6.48282054787718    0.48814453686298
C          -1.20273008103345   -8.59167155708638   -0.27626960081344
N          -1.45172982821127   -9.35848124603766   -1.09454457510202
C          -2.06752524934056   -8.64742630358867    2.72837692374893
C          -2.57911583851998   -9.85048018634513    2.13621295772456
C          -3.35074895832111  -10.50626478230839    3.05458795170188
C          -3.33501732890393   -9.74773437813763    4.29356795036119
C          -2.56126148623093   -8.64377617644208    4.11648913423719
C          -2.29000722181296   -7.68732200363217    5.10187347276031
N          -2.07938192763044   -6.92431039965411    5.93379697245844
C          -4.10209023531942  -11.71913336425405    2.80508489344039
C          -5.01742290760544  -12.24519504678764    3.63988020380022
N          -3.71068671741664  -12.37990275274366    1.65160763449310
N          -4.50645148911865  -12.96746186960839    0.93251334293284
C          -4.53480081964240  -13.50470567277623   -0.24545261887513
C          -5.24263547229754  -14.65962606006718   -0.52928181496696
C          -5.37559993650504  -15.19385299764802   -1.81235623793978
C          -6.18264690999905  -16.35868378333815   -2.01905209150093
C          -6.36576352261262  -16.93583010531341   -3.31849030898875
N          -7.18436096715458  -17.99021655526439   -3.46977809356538
C          -7.77835608867373  -18.49416550161721   -2.41695811217365
C          -7.55188687105927  -17.95053349405033   -1.11405901642296
N          -6.77926218217677  -16.89811010814301   -0.95336833670513
C          -8.17474684560164  -18.52274025545397    0.02215178771536
N          -8.69337134861457  -18.99819210673441    0.92628022546937
C          -8.66850824910899  -19.58797749450005   -2.57850964406385
N          -9.39697551642331  -20.46698846312084   -2.66376465367797
C          -5.67347481879874  -16.45931022578586   -4.46181475868690
C          -4.89181799367660  -15.29670802310276   -4.26731316071547
C          -4.76251653773904  -14.66423444847443   -2.97905057772393
N          -3.99672923180556  -13.57636148064473   -3.04107542573860
S          -3.50307703338989  -13.35302962022413   -4.55537734673952
N          -4.23486091469051  -14.62238386197354   -5.21247629342337
C          -5.84484240003915  -17.11987408514538   -5.70360353798066
C          -5.03697553760238  -17.13470142353552   -6.80245395674395
C          -5.61383575662335  -17.53034056234723   -8.11853763901970
O          -6.69782310063195  -18.02578832797287   -8.31651272094872
C          -4.60071574382077  -17.13567482346753   -9.11958189728769
C          -4.67668351660916  -17.18433316859144  -10.48123185057725
C          -3.57752989550400  -16.73353278145215  -11.24684580530839
C          -2.42102950424848  -16.23280686061849  -10.58134593109387
C          -1.33006970361430  -15.78100126694107  -11.35068269202836
C          -1.38322227092084  -15.82723033813035  -12.71552032009427
C          -2.52686605962493  -16.32364232660788  -13.37242681888542
C          -3.60195574186414  -16.76764843075270  -12.65456927960711
F          -2.55169030298640  -16.35577449769229  -14.71177999581359
F          -0.34403225560554  -15.39858000619390  -13.44443539624885
C          -2.37028189131821  -16.19874948321279   -9.16867191690522
C          -3.44258924197443  -16.65084467564241   -8.44747754121501
C          -3.65632960903197  -16.77192413545467   -7.00751547427923
C          -2.66360008137979  -16.76400169404605   -6.06017706288510
C          -2.85470004933006  -17.13225036019287   -4.71531767101327
N          -2.95331486624409  -17.43585308181817   -3.61180692090935
C          -1.32033255567173  -16.43486577636990   -6.32825705070406
N          -0.22052692976232  -16.14178159635511   -6.47952516837560
H           6.12120692994012    0.34307846123186    0.22544468559868
H           7.04322604913941   -4.06443708844019   -1.85020712887885
H           4.00517973431611   -0.48720458872293    1.10432465757118
H           4.88310170783576   -4.94263251383937   -0.95773773923859
H          -0.04878481972321   -3.87957238598316    2.75390909824732
H          -1.00747065493235   -6.15214488305855    3.71224915623526
H           0.17673117241108   -6.15298547343284   -0.45050485440648
H          -2.39323320412498  -10.16229712904565    1.12761030888167
H          -3.83671744844136  -10.02444146620306    5.20140577124247
H          -5.22723141155883  -11.80623457057286    4.59723245169523
H          -5.52997494451449  -13.15798567540014    3.39015326072446
H          -4.09567057723712  -12.96258326907563   -1.08763005215310
H          -5.68839615857434  -15.22443949627252    0.27671527964390
H          -6.77724985299611  -17.66738532339619   -5.80700331820278
H          -5.56188194497909  -17.56354740008830  -10.96874749659754
H          -0.44523041200551  -15.40156937503215  -10.86390203280787
H          -4.46983034457932  -17.14512756855978  -13.17226765689652
H          -1.48536233161624  -15.80863046751685   -8.69182562189387
