109
 SCF done       -225.146364307188          0.000953009834
C          -5.59237774381763   -3.63424424187336    1.45620135681273
C          -4.64885977170815   -4.38249598671469    2.10230672462980
F          -3.79266235271509   -3.79813402300582    2.94823359999316
C          -4.55967292477281   -5.77265561714879    1.88507252627763
F          -3.61931490069760   -6.47595504311920    2.52653208253865
C          -5.41626345573631   -6.39646217622860    1.02251474976330
C          -6.40577958171441   -5.65392942155209    0.35016097036188
C          -6.49926337330188   -4.24785199535580    0.56992438174277
C          -7.50660376780536   -3.48906557498045   -0.06878310123535
C          -8.42381333617489   -4.12438482355006   -0.86429680673776
C          -8.33455287920580   -5.53277770409695   -1.05778530049950
C          -7.33892989426020   -6.28429507966070   -0.50090545061338
C          -9.51341979427673   -5.99108733673783   -1.79905190064144
O          -9.70303860276413   -7.07817379404299   -2.30853740529562
C         -10.40077250873745   -4.79965794497772   -1.90677941751258
C          -9.63192779241057   -3.63246287361125   -1.52294447010428
C         -10.00580562276541   -2.32514548240511   -1.66493344944223
C         -11.23998258587826   -1.90996221601416   -2.21064030132134
N         -12.24975049097594   -1.52312559652665   -2.59291991120101
C          -9.19950023020519   -1.23661525172523   -1.27013398220166
N          -8.57724438477335   -0.32131428598514   -0.96782869550989
C         -11.71029394454753   -4.90996639388010   -2.27832554441723
C         -12.40753841190967   -6.12712767878974   -2.07492408828818
C         -13.31199447280568   -6.80353801846830   -2.89103348500105
N         -13.66158972441429   -6.42969210301729   -4.19142348211565
O         -14.33913382903368   -7.20125071551277   -4.84996546568061
O         -13.24548293190266   -5.35730287128951   -4.61084993083404
C         -13.68576979898580   -8.02711978994977   -2.26206496874346
C         -12.99322883921819   -8.13700880140746   -1.08416004675627
C         -12.18134607977095   -6.98506175745458   -0.91237617650785
C         -11.33870555899547   -6.62055439972051    0.15237569236786
C         -11.28027241307918   -5.33381748323120    0.72906437450563
C         -10.32345607269469   -5.31293109409260    1.71706117211373
C          -9.69851833323874   -6.58040829551418    1.77468023488999
N          -8.57277843772000   -6.83026548278611    2.55580383191493
O          -8.10792108381663   -7.96587290840917    2.59848234356826
O          -8.07179567750358   -5.88180683515325    3.14470091058081
C         -10.30916865320854   -7.44018528355724    0.82700143886115
C          -9.84627409797760   -8.70496532540223    0.48516602052241
C         -10.26228915548419   -9.43114154316061   -0.61498814457206
C          -9.94746790397238  -10.72841993862766   -0.98757259131934
S         -10.72752287641414  -11.27552740722770   -2.44332968755320
C         -10.00131573939684  -12.84572956455922   -2.38206970373115
C          -9.14376615884749  -12.94907707324942   -1.25896357458141
C          -9.12564919932518  -11.76777037507684   -0.45848013115170
C          -8.32628463596235  -11.72464198268548    0.68693440319172
C          -7.54342939738988  -12.80734642866982    1.03640205527938
C          -6.67648147255298  -12.76686288089184    2.25046994729551
C          -7.55907864884588  -13.95901835174135    0.23104607352315
C          -8.33742616796830  -14.03710432379741   -0.89462048709937
C         -10.31720387265081  -13.67325298604979   -3.47090769514320
C          -9.94936011769838  -14.94798226682739   -3.79142937692617
C         -10.19009501459455  -15.47056369147643   -5.08515964806167
S         -10.14702497508289  -17.17108888707674   -5.40640002950340
C         -10.49921103832633  -16.92590222519804   -7.08711533467716
C         -10.64577332091082  -18.02004825845562   -8.06948634252899
O         -10.90628913700349  -17.79616711475495   -9.21869499085085
O         -10.47855430828686  -19.26755123362936   -7.61446590958287
C         -10.61871841723361  -15.59152026812380   -7.39055759399058
C         -10.44155369977308  -14.76449545256324   -6.27310620916686
O         -10.38494635751449  -13.41449257733272   -6.23767394542323
C         -10.77622142478054  -12.59535141287241   -7.20922060357257
C         -10.59810876632837  -11.25665766523195   -7.10346598194087
C         -11.33105495367461  -10.33199017682153   -8.01743765163614
O         -11.92233440846246  -10.64568966410445   -9.02273651324244
C         -11.19335684566615   -8.99993358877517   -7.40391448696648
C         -11.73354559538432   -7.81079232770815   -7.80635328329761
C         -11.42998442674691   -6.63612785715158   -7.08137345030898
C         -10.57723100765841   -6.72429548524214   -5.94255960403509
C         -10.23308924705493   -5.54694415243778   -5.25280648036228
C         -10.73420731159060   -4.34060378179876   -5.64960555866509
C         -11.59629326086063   -4.25419677221353   -6.76053052259136
C         -11.93176536626728   -5.37808163401940   -7.46529815361230
F         -12.06090106632711   -3.06180538609932   -7.13805480644283
F         -10.39053093706884   -3.23040008531046   -4.98037822394923
C         -10.07035802720112   -7.97189802319352   -5.51767742333629
C         -10.36248839120762   -9.09407261069054   -6.24813014254529
C          -9.91124167106203  -10.47003886128383   -6.09482218085977
C          -8.92128096028909  -10.89205689382996   -5.24647438091602
C          -8.31756593123844  -12.16606715964875   -5.26632324933817
N          -7.74448697897605  -13.16065443291425   -5.23026254054198
C          -8.30533597756619  -10.10078567621209   -4.25115789637350
N          -7.76760682153836   -9.57621050598634   -3.38276891421208
H          -5.64875748333345   -2.57277688369704    1.63968213245486
H          -5.34684246340647   -7.46287809115110    0.87484913459589
H          -7.54895966603489   -2.42720529435875    0.11444952431674
H          -7.29280287215395   -7.34910313734005   -0.67479130886615
H         -12.26118003314070   -4.07072464254259   -2.68438235426254
H         -14.38933345681429   -8.72485037325793   -2.67393923614605
H         -13.10280352233444   -8.91434828070173   -0.35108099273375
H         -11.94517243462443   -4.52813259146708    0.47947468058914
H         -10.07072316469946   -4.48743496220281    2.35548007239545
H          -9.06196584974053   -9.08776610501003    1.12130095419271
H         -10.90357303781598   -8.91648210293896   -1.31682025260863
H          -8.30632691402521  -10.84670277637690    1.30979184012789
H          -6.95847843668686  -13.56044598891062    2.94148867596740
H          -6.75808814995168  -11.81146710403393    2.76089427740257
H          -5.63556792964588  -12.92882694820936    1.97351051896449
H          -6.93559161298873  -14.79583421832942    0.50851310312740
H          -8.31551161019462  -14.92291606267583   -1.50569032660190
H         -10.94746162648750  -13.16828814693718   -4.19070388237472
H          -9.46741999361984  -15.60385548227801   -3.08356101579272
H         -10.26619982359214  -19.31629492788235   -6.67262493256813
H         -10.80769907528726  -15.25749028174000   -8.39479844658245
H         -11.32423702300458  -12.98962543202511   -8.05866661995151
H         -12.37365643478839   -7.76535290705226   -8.67397543430293
H          -9.56514652230416   -5.60411077689718   -4.40963495554092
H         -12.59313644866524   -5.29535123701419   -8.31330076601945
H          -9.47319906386203   -8.00663455087830   -4.61956245327630
