117
 SCF done       -244.905053298293          0.000684022617
C          -2.48330941604735    2.84521567779996    3.12085205418845
C          -1.21400052184522    3.24905145130670    3.42762140084746
F          -0.96023164716266    4.53722028156237    3.67921954650924
C          -0.15663465250868    2.31650532929647    3.48226122902543
F           1.07509658581710    2.74155959681940    3.78380661828316
C          -0.38431725706301    0.99295042267848    3.22876767653831
C          -1.68139183780781    0.54588264756193    2.90795015973756
C          -2.75173417382037    1.48732348445740    2.85384783818282
C          -4.06110656675250    1.06144688953036    2.53660714110896
C          -4.29511336948250   -0.26475326377950    2.27833932700736
C          -3.21835931395261   -1.19677377288135    2.32638337689553
C          -1.94242712229342   -0.81361097504365    2.63421231190046
C          -3.71056472301108   -2.54150489814844    2.00474727012133
O          -3.06618167158675   -3.56634229254565    1.95141286136419
C          -5.16375772802324   -2.36882605327683    1.68763115496213
C          -5.52006894131467   -0.97691932140957    1.93991600989266
C          -6.78397439140702   -0.46228550083184    1.93774546173183
C          -7.95367394440053   -1.21571701486867    1.68795021913870
N          -8.94007072611107   -1.77434097407516    1.51501764753373
C          -7.08510639554038    0.88912092906695    2.22037432190533
N          -7.38158084120697    1.97553173204336    2.43674627461320
C          -5.92276280962487   -3.32008032856266    1.11013931744301
C          -5.47148354029273   -4.68460828033934    0.92085310276358
C          -4.92935192535142   -5.48234518054470    1.93563715878427
C          -4.73711455440088   -5.14914374783584    3.37437500509424
O          -5.10049103327145   -4.19986109603639    3.99454828315321
O          -4.05578097301823   -6.19114764226659    3.93464383076379
C          -3.81542940879941   -7.18733625251128    3.01734290500151
O          -3.16985305056379   -8.15093388534672    3.28505384074206
C          -4.44397736405634   -6.77080194346590    1.73517172080677
C          -4.46508254507563   -7.40724885166747    0.47428042492053
C          -4.99699841841310   -6.59276217583490   -0.54309962675994
C          -5.49094139574204   -5.31043214252153   -0.32510441820197
C          -5.92557140018381   -4.76980967360794   -1.63552134372343
O          -6.38129970311446   -3.70212125599162   -1.90094841170604
O          -5.69539545109818   -5.74876057681629   -2.56851553657384
C          -5.13144619402423   -6.86423780204759   -1.99174979382904
O          -4.82125341365971   -7.82746647696813   -2.62342513562083
C          -3.97578161876292   -8.71716466231121    0.16490521648058
C          -3.97807864035860   -9.77275025423461    1.01216662233181
C          -3.50491496869562  -11.08858587515440    0.75754942143290
N          -2.65869314462044  -11.54142279349559   -0.22567167365276
C          -1.93585319588889  -10.78669615397723   -1.22402116113847
C          -0.89507514812417   -9.85987577427440   -0.60341660013228
C          -2.40540714337023  -12.92783381501842   -0.09477893948418
O          -1.67081217021602  -13.55095912845909   -0.82927652214457
C          -3.19861874113490  -13.32883273164451    1.04485859488821
C          -3.84951211991111  -12.18921228994565    1.54600433581452
C          -4.66526379456293  -12.60603851071392    2.67052376768066
O          -5.41751277715632  -12.00032533232200    3.39719944517759
N          -4.42966395640699  -13.99911377963756    2.77697492256895
C          -5.06342477953335  -14.74976991663201    3.83421645631883
C          -4.11520383836002  -14.99825074293586    5.00519197437253
C          -3.55016478263879  -14.44164050542740    1.81791619821232
C          -3.02514157874168  -15.72278628702599    1.55234075298412
C          -3.22396065832448  -16.91812082032029    2.18031516529773
C          -2.58150036858726  -18.10286107559186    1.77590204785798
S          -1.48809617754680  -18.15114160500033    0.43789536373888
C          -1.23842221379853  -19.85913688410222    0.57149581414869
C          -1.92939270833147  -20.37481168994841    1.68667346587480
C          -2.70790402044024  -19.38433466612906    2.35880748391562
C          -3.48125862403532  -19.74353601379874    3.46993165936175
C          -3.46353048003372  -21.04574597533051    3.92234473138645
C          -4.24981760740265  -21.41746542285973    5.03801617192197
N          -4.88753183617595  -21.69610664273721    5.94781199254589
C          -2.62977064672479  -22.01522010363545    3.29571217152738
C          -2.57619077583074  -23.33654662729527    3.79889011176442
N          -2.51278978850854  -24.41633041709933    4.17537441705585
C          -1.86437199026208  -21.67776756445466    2.20158076909174
C          -0.40900302068747  -20.49859310801241   -0.36975057495201
C          -0.39021352971970  -21.79639016999724   -0.79504560899406
C           0.83297950626256  -22.29828227849076   -1.48674540435183
O           1.76231187124931  -21.63011327499054   -1.87414175617743
C           0.67753332697093  -23.76409916317739   -1.53492987963808
C           1.56766253713182  -24.70778185401337   -1.95945375465531
C           1.20892325445822  -26.07239210338370   -1.88369551057892
C          -0.06664728243201  -26.43290806828490   -1.35906100394521
C          -0.41409894275628  -27.79610121523015   -1.27749735324194
C           0.46148029307173  -28.75613899668238   -1.70204417232974
C           1.72181316235186  -28.39831541157975   -2.22293191323368
C           2.08933023550346  -27.08470209292093   -2.31187643248723
F           2.55936832700229  -29.35969080812814   -2.63050213087404
F           0.12964810881540  -30.05010406298576   -1.62788340744200
C          -0.97077657207549  -25.43273664793052   -0.93284448107502
C          -0.60670378575697  -24.11645777408915   -1.02888381656070
C          -1.32946776864011  -22.88998614704352   -0.69912393253264
C          -2.69126863561863  -22.79214871791424   -0.55571787236123
C          -3.38671792145905  -21.57229851883426   -0.46570708848395
N          -3.99406008416886  -20.59895011331329   -0.41307076160030
C          -3.56377987095030  -23.90024318570201   -0.56512552405661
N          -4.31720671757029  -24.76530747963432   -0.55246150373133
H          -3.28005090649722    3.57170890748455    3.08530471823766
H           0.43458438184261    0.29226279650963    3.27472217663645
H          -4.84835052164363    1.79710758261428    2.49990350326898
H          -1.14557175704556   -1.54094255635322    2.66774777322822
H          -6.89195506450072   -3.08201983597023    0.69116410513849
H          -3.68134420712957   -8.84338277661501   -0.86567850589393
H          -4.42891608269759   -9.67575144008586    1.99034347042904
H          -2.63276826836009  -10.23679335613134   -1.86097691937256
H          -1.43360556365026  -11.53790366826357   -1.84185153501561
H          -1.35457239842836   -9.13867399882994    0.06800350437612
H          -0.37274579729565   -9.32279556454022   -1.38994567923008
H          -0.16928848019554  -10.44110457067720   -0.03984317321550
H          -5.46372328312657  -15.68310489300564    3.43023307372757
H          -5.90124850103918  -14.13418959256084    4.17548843819352
H          -3.21654014576212  -15.52135702041321    4.68490043461870
H          -4.61643341157323  -15.58974163443375    5.76653905664135
H          -3.81977726160561  -14.04914490596821    5.44501651202193
H          -2.34906531143850  -15.71352675283549    0.70406744835530
H          -3.88713845277920  -17.00526679565573    3.02593776515949
H          -4.08959931565507  -19.01399656167218    3.98193293130177
H          -1.20419104510500  -22.41095828375791    1.76493156340531
H           0.36133970313832  -19.87549380439511   -0.81736305324730
H           2.53233208716632  -24.41759963592516   -2.34693831256258
H          -1.37531155330618  -28.08687319822921   -0.88339627602910
H           3.05757068953369  -26.82742926173951   -2.71194451378578
H          -1.92461389630090  -25.73402098928547   -0.52998002513338
