108
 SCF done       -212.901923403001          0.000367246926
C          -1.27113424270798    3.87211656614997    0.62237812830709
C          -0.03040159461509    4.40890707537588    0.42236378879443
F           0.13559719128306    5.73788140427065    0.41753596155231
C           1.08787696037707    3.57532279659270    0.21881481541737
F           2.29208107778923    4.12951312847019    0.02463704485521
C           0.94970159168019    2.21564118177782    0.21832253129102
C          -0.31593795580979    1.63223063725831    0.42175756194782
C          -1.44748258596816    2.47365693104265    0.62809990227221
C          -2.72745115952004    1.91119600370666    0.83666438666808
C          -2.87194781247857    0.54837831237654    0.83789065485912
C          -1.73870587741597   -0.28174120006144    0.62371921143481
C          -0.48941670914912    0.23075352442971    0.42310584213151
C          -2.14911479522491   -1.69832254446089    0.65344512494356
O          -1.39984759021609   -2.64729767165877    0.54500510188507
C          -3.61971480187131   -1.68759372880279    0.83394113427682
C          -4.03934544069294   -0.30700905846267    1.02910150626711
C          -5.28353920494666    0.14000849628011    1.39081458481378
C          -5.60766105662817    1.50158463544822    1.57547290770112
N          -5.94089923544596    2.58788828505005    1.73810284105948
C          -6.41207760235543   -0.66019519879837    1.67130391033193
N          -7.37430253731648   -1.22862576874363    1.93709198868371
C          -4.49944415990184   -2.73371335841806    0.75272583691962
C          -4.29550629873990   -4.11707858555518    0.57621941306836
S          -5.73348372726256   -5.10468102090564    0.40526194132249
C          -4.79182781677196   -6.54377830579582    0.26442730316837
C          -3.42384922771631   -6.26911105202858    0.35701017187166
C          -3.16180910690347   -4.90999877803105    0.53103621682736
C          -2.39061238556073   -7.33959149317955    0.45223765271889
O          -2.64310272916450   -8.40219408782175    0.96953735666184
C          -1.04376491126609   -6.98392826728112   -0.09873572590323
C          -5.36259023635803   -7.81357722140591   -0.04789711272300
N          -6.56310436984354   -8.29706475249225    0.40771309253525
C          -7.40110546738295   -7.71339348118035    1.42707335486099
C          -6.72273663607318   -7.72305515773134    2.79313292255673
C          -6.83828635068577   -9.58131650591334   -0.11740433904088
O          -7.83163976603594  -10.21955735360366    0.15998525359049
C          -5.72099759423976   -9.84943552364039   -0.98992172471183
C          -4.83325856749403   -8.74927904156369   -0.92303644779500
C          -3.75717849615743   -8.99970827062693   -1.85369390689985
O          -2.80747265008015   -8.32533809907311   -2.19406197746649
N          -4.04578024501035  -10.26909920243824   -2.39780098299984
C          -3.09797684145099  -10.87848380756575   -3.30066389543736
C          -2.23814556386696  -11.92297784190337   -2.59424307922664
C          -5.21732963181387  -10.78253369626791   -1.89179786771320
C          -5.90543957221899  -11.99144207660614   -2.19551176995746
C          -5.55369908671242  -12.98117774241737   -3.04401424790208
C          -6.35594933529490  -14.14327627202464   -3.31605080687268
C          -7.55592083627978  -14.45377793295861   -2.72777771384827
S          -8.24063366180952  -15.90476061895454   -3.32237593962450
C          -6.93330710691885  -16.13489076824697   -4.39073847619219
C          -5.99456538153030  -15.14099457691971   -4.29335600144420
C          -4.78283396811964  -15.11598648817446   -5.10790119311493
O          -3.86162363453681  -14.34413997236815   -5.02155400719391
O          -4.80410566382389  -16.12001898998081   -6.04174201075680
C          -3.76675581094045  -16.21219227836786   -6.89786529204747
C          -3.79954345942050  -17.05863472193142   -7.94058842754420
C          -2.71365839719252  -17.16256249890514   -8.85214245494706
C          -2.70314413873596  -17.78832385668673  -10.05679986076796
C          -1.40353812739374  -18.12639737369499  -10.70443943040372
O          -0.31377509954921  -17.70193943261877  -10.40203282571740
C          -1.73621551709146  -19.12496388259512  -11.74027355321865
C          -0.89374003121421  -19.83303152003967  -12.54829423710482
C          -1.43789814662836  -20.76188893934664  -13.46302733217696
C          -2.85051313320778  -20.94507291546654  -13.51606780363869
C          -3.38730059691941  -21.87629321029188  -14.42796675379812
C          -2.56113831759728  -22.58909705652074  -15.25061707733062
C          -1.16412705424564  -22.40646632362830  -15.19797921718930
C          -0.61292618441103  -21.51258836915037  -14.32330939436676
F          -0.37911529200029  -23.11987968851114  -16.01523568642503
F          -3.07264432314351  -23.47147559911111  -16.11776756693580
C          -3.69840252374755  -20.19548161558332  -12.66947869298873
C          -3.14993503493540  -19.29128282001534  -11.79899379458501
C          -3.76755713258226  -18.35833790072369  -10.85936569398646
C          -5.07141439670611  -17.94322869486520  -10.90053545933028
C          -5.57836220054523  -16.83004902217448  -10.19569720178137
N          -6.03621935019824  -15.90432806668817   -9.69543408022378
C          -6.04726990858761  -18.51275578713584  -11.74651158230306
N          -6.88228272853135  -18.95629813451661  -12.39671358239636
H          -2.11620596173107    4.52445167846577    0.77790616886973
H           1.81518358765822    1.59123335593896    0.06098098767728
H          -3.56187622493331    2.57672548118164    0.98546631732279
H           0.35329830153611   -0.42516955008320    0.26584609152483
H          -5.54928503719823   -2.47160588896404    0.81123933005018
H          -2.18048232076036   -4.48911969008801    0.64525373257339
H          -1.14149669125386   -6.89527678451954   -1.17951253729266
H          -0.33493673473985   -7.77437341616400    0.13227493161264
H          -0.68933098797577   -6.03558002975641    0.29417503892810
H          -8.30357960519242   -8.33090620983867    1.45273611145532
H          -7.68070958296492   -6.69490926803068    1.14126195839392
H          -6.47892779286918   -8.74230152569176    3.08245345929524
H          -7.38979383394951   -7.29698520876172    3.53698262754186
H          -5.80307642458670   -7.14232214630402    2.77574932895694
H          -2.46028524379662  -10.06149385922804   -3.65218254595093
H          -3.61912529792392  -11.30426391731663   -4.16047217596666
H          -1.66126107244005  -11.45176067842070   -1.80209129246433
H          -1.55547230967748  -12.37620006588362   -3.30702208844122
H          -2.85233538521985  -12.70517762079608   -2.15488942983998
H          -6.83842265796823  -12.06386372300718   -1.65171182507802
H          -4.62688047089136  -12.94865641950894   -3.58955743014820
H          -8.07653272505584  -13.90554167659751   -1.96873096152848
H          -6.90960563163712  -16.98786321493476   -5.03892983184812
H          -2.93823265627470  -15.53600504657026   -6.71280130070370
H          -4.67249402235669  -17.67839959384075   -8.08083996356377
H          -1.76169286527219  -16.75250205953275   -8.53246710854125
H           0.17385839327757  -19.68477999225184  -12.49132524353890
H          -4.45429939769562  -22.02545453480614  -14.48379417781997
H           0.45779037631916  -21.38428528587706  -14.29544734732288
H          -4.76249841069758  -20.36061686448270  -12.72570404170773
