122
 SCF done       -239.317359833079          0.000524805652
C          -3.35567090334137   -4.37456543605570   -8.87527809770501
C          -2.94663506587924   -3.34248114726040   -8.07844537818854
F          -2.55435519795887   -2.18600263808127   -8.62657994212755
C          -2.93076159233750   -3.47893789674960   -6.67485130811145
F          -2.52156902641992   -2.44944038955584   -5.92468716057323
C          -3.31868133280774   -4.64963776613691   -6.08678343325667
C          -3.74479758773245   -5.73100237317061   -6.88123088869075
C          -3.76959538317658   -5.59293669870643   -8.30024088924876
C          -4.21839056096547   -6.65660748772086   -9.11526301568743
C          -4.65171548225782   -7.81840053712935   -8.53018114916618
C          -4.62270321992753   -7.94633109044865   -7.11171092475939
C          -4.16781355099077   -6.94484655511099   -6.30093325174615
C          -5.19744961505169   -9.24231222288271   -6.72868977795279
O          -5.21617107528568   -9.74977710707918   -5.62878908484986
C          -5.73022705012974   -9.82787425493875   -7.99350269237947
C          -5.25149761529803   -9.01915075585521   -9.10383131888198
C          -5.38858760784117   -9.29463802879505  -10.43514332658829
C          -6.05944933998075  -10.42177972063570  -10.95976728747597
N          -6.62850851983569  -11.28649561244411  -11.45422272893447
C          -4.88229263613997   -8.47113567583129  -11.46455027737670
N          -4.48774299227503   -7.84234351266008  -12.33927258973180
C          -6.58268784246629  -10.88211292420079   -8.00493658173116
C          -7.16440624953892  -11.40251689922566   -6.80339955972268
C          -7.10674013223676  -12.71188975997826   -6.37958678227454
N          -6.50939028868192  -13.76895464300497   -7.09398662619582
O          -6.61317408200302  -14.88940507987621   -6.63394254448751
O          -5.93334528938902  -13.49251430903025   -8.13324232871705
C          -7.60799946470235  -12.80749389074448   -5.03494847789224
C          -7.94937528610127  -11.56228616652872   -4.61971275301839
C          -7.75889537337971  -10.62960301314005   -5.69818660283470
C          -8.03067835970576   -9.27653673832660   -5.77924465309610
C          -8.00121070891935   -8.51428261501501   -6.99860580100964
C          -7.65370806379622   -7.23342278232581   -6.71173673244081
C          -7.48975590636812   -7.11343087962858   -5.29376192475119
N          -7.02397837576519   -5.94688194532053   -4.69101796650885
O          -6.98551347683450   -5.87458009029545   -3.46807827482055
O          -6.62564495416613   -5.05544265141432   -5.43184084813473
C          -7.88021616651762   -8.31021336933092   -4.67414689101787
C          -8.02789012349142   -8.49717544581868   -3.29122624400584
C          -8.99305330026864   -9.28716125711945   -2.71757100190355
C          -9.18941284766107   -9.46312441503813   -1.34274648553932
S         -10.75630031496696   -9.98623175731007   -0.79370102806266
C         -10.32529858890591   -9.84447924139232    0.87420183657415
C          -8.97664736049158   -9.45258801836084    1.00816738631355
C          -8.32335146385501   -9.25234748442618   -0.24233602342128
C          -6.95567134848269   -8.94571298396867   -0.26773309054579
C          -6.26539838265882   -8.76507679902991    0.90988204626598
C          -4.81298134582914   -8.41844475991346    0.90819248416952
C          -6.93738968743771   -8.91025184954018    2.14091789193034
C          -8.25795511134690   -9.26077311965520    2.20098823830976
C         -11.25185720693020  -10.09050457552055    1.91100591290350
C         -12.55914018242068  -10.38309702099479    1.70156740863558
C         -13.53065981509617  -10.65735240894935    2.72758763147467
C         -13.12477858574487  -11.15821385352623    3.97712687438484
C         -14.08184905550672  -11.51565421745154    4.89275972431992
C         -15.44705519824229  -11.39529733133529    4.60145687400883
C         -16.21152947158812  -11.87839613376363    5.77672448857815
O         -17.40265396146143  -11.94538994777649    5.93972828583116
N         -15.25332702034474  -12.26971317264601    6.70136570273163
C         -13.95315731415945  -12.08052090334180    6.25971181631767
O         -12.95901921716942  -12.34026873856481    6.88762525787872
C         -15.58132479243237  -12.78772705618188    8.01319067326501
C         -15.73531255731876  -11.66183227602054    9.02919208025245
C         -15.87148532496559  -10.89573178600962    3.39416555815098
C         -14.91395259126355  -10.50199698458848    2.44857288287239
C         -15.34458968547345   -9.88097820587451    1.21516186820666
C         -16.47891552942612  -10.19584533054370    0.55609391188476
C         -16.86411937611336   -9.55727250206528   -0.65535285327321
C         -17.77585468231393  -10.01009754632352   -1.55395684565930
C         -18.37536884733359   -9.08799067137875   -2.56024909890676
O         -17.96660737664034   -7.99513896285461   -2.87232505976746
C         -19.59140153504049   -9.77950046230943   -3.03376522158443
C         -20.56516177340769   -9.32033870613394   -3.87334951226351
C         -21.66533728546208  -10.15502686014946   -4.17140964494149
C         -21.73825735629453  -11.45316274848811   -3.58646043373657
C         -22.84303251383040  -12.27691585948585   -3.88189417113118
C         -23.82692619739792  -11.83462710500318   -4.72110498748834
C         -23.75243844751390  -10.55161087128789   -5.30120437164770
C         -22.69474458798967   -9.72848894215540   -5.03295015151155
F         -24.73082222822514  -10.14488835405646   -6.11891168124171
F         -24.87480720522282  -12.61808531527975   -5.00110065047568
C         -20.71135818664657  -11.90563701228381   -2.72695272855763
C         -19.64976189513154  -11.08299271171249   -2.45950807603531
C         -18.44550367696849  -11.29036338195173   -1.66113884212932
C         -17.92655639282822  -12.50247331486332   -1.28943273448640
C         -16.61013564685890  -12.66751677011708   -0.80794928590467
N         -15.52627401163848  -12.84271927565728   -0.47297577317263
C         -18.60440925120206  -13.72771166852508   -1.46274946656327
N         -19.12968193154542  -14.74230677462023   -1.56584665490687
H          -3.36512474717061   -4.25030963322220   -9.94695700983999
H          -3.31214563230251   -4.73562034326419   -5.01196744529258
H          -4.22827126539554   -6.51807532405500  -10.18452202236731
H          -4.15393844454925   -7.06937190764740   -5.22863025749654
H          -6.83249557487034  -11.38369708322300   -8.93241585933087
H          -7.65393613915885  -13.72550404387932   -4.48103742263800
H          -8.34860546883839  -11.31806932538972   -3.65719753490659
H          -8.23564052654036   -8.91198007038851   -7.96683944797365
H          -7.52336189395351   -6.41498920171111   -7.39435597349294
H          -7.45978635909318   -7.82689213006504   -2.66078503204875
H          -9.75100032638882   -9.71786973786476   -3.36182665616098
H          -6.43457311383066   -8.87711514920635   -1.20817563414544
H          -4.25531618854699   -9.10965659058031    1.53809499721381
H          -4.67053596501082   -7.41630054675813    1.31188600471944
H          -4.40336350123448   -8.44745510297121   -0.09742184357688
H          -6.38078984660581   -8.76057768839738    3.05402387298995
H          -8.74299062089487   -9.39770578116347    3.15458142019305
H         -10.87170563499004   -9.99536883865275    2.91799773126544
H         -12.91182569947962  -10.42956173867918    0.67966401650369
H         -12.08041338314188  -11.30160189880303    4.20402055986487
H         -14.77292497169193  -13.46056176499296    8.30867407725876
H         -16.51588053874708  -13.34598635570762    7.92007487648941
H         -14.80681988396970  -11.10197225148720    9.11482958287212
H         -15.98408385846773  -12.07705441932777   10.00145161880014
H         -16.53079721328337  -10.98608364325388    8.72353673247091
H         -16.92477010837861  -10.77457912907810    3.19569752472252
H         -14.68659966047215   -9.13884075067978    0.78275106551577
H         -17.11986377860260  -10.97947717447155    0.93579293558984
H         -16.43859676420561   -8.58135715078576   -0.86377496653266
H         -20.49715167733300   -8.33316813866242   -4.30447238829879
H         -22.91405347800068  -13.26272745257934   -3.44951321073456
H         -22.65259266775021   -8.74970597409660   -5.48448508964553
H         -20.79361190069205  -12.88931610335547   -2.29246406690336
