130
 SCF done       -261.846363916665          0.000610341428
C          -4.81122684948790   -2.69435191702763   -6.78046325764401
C          -5.38130624921937   -3.13113344525350   -7.94387940392420
F          -5.19565188262741   -2.45340875668743   -9.08094146411460
C          -6.17224867149176   -4.29856627605795   -7.96069299520738
F          -6.71986809294955   -4.70702417473573   -9.11252417144515
C          -6.38001084624743   -5.01247764962846   -6.81435606339100
C          -5.80188980176436   -4.59135699888164   -5.60117955365777
C          -5.00532331540429   -3.40915373694178   -5.58132215369422
C          -4.41939480778636   -2.96585809927554   -4.37360356515948
C          -4.62539708405152   -3.68291278709843   -3.22431831327681
C          -5.41562774183408   -4.86889316956461   -3.25669559674880
C          -5.99366987798960   -5.32207568133446   -4.40875416272231
C          -5.45519402480025   -5.47040345243610   -1.91709860586924
O          -6.02142581540287   -6.49207553402254   -1.58304558426657
C          -4.59476626830663   -4.60818824686040   -1.06964952603171
C          -4.16379999350810   -3.46673582704858   -1.85878463352291
C          -3.53013725687718   -2.35766664678235   -1.37466467275727
C          -3.14321634200942   -1.25890952760545   -2.17186839440705
N          -2.81114900845655   -0.34779234861345   -2.78403856790608
C          -3.25399158022314   -2.16226122923333   -0.00332462620810
N          -3.06381776946080   -1.94675424644813    1.10703264841187
C          -4.16080798276135   -5.00117978136259    0.15263150989450
C          -4.70342310298356   -6.14335441271402    0.82420419728869
C          -4.00775003696623   -7.26429386812087    1.22161393277218
N          -2.61928559125585   -7.44144629397944    1.05775417576359
O          -2.11350696372753   -8.43505459861762    1.53692706000129
O          -2.01722568691931   -6.57257997235299    0.44587761546417
C          -4.92455995376900   -8.24712901317597    1.73975562587994
C          -6.18189757472808   -7.75126653044981    1.62908067644547
C          -6.11680444961871   -6.41669698322346    1.08562012105583
C          -7.12526280900380   -5.47560810441977    1.02994358735229
C          -6.95561747219864   -4.06300968899883    1.15362732715350
C          -8.17555061738727   -3.48998992586954    1.37766043733491
C          -9.17722887955704   -4.50503736936868    1.34153094866647
N         -10.54934147484702   -4.23113081666731    1.48226611266329
O         -11.33911677757498   -5.16177276814022    1.42517702898765
O         -10.87163391425864   -3.07131041073824    1.66376261730299
C          -8.57258497314607   -5.74205838556763    1.07942932702780
C          -9.21608492216054   -6.95342809103842    0.79295338829306
C          -8.69564790142381   -7.95187034442644    0.00166829376055
C          -9.31753399105975   -9.20160059769949   -0.15038929879175
C         -10.28215315662932   -9.72366174669197    0.72236616697184
C         -10.57688867938828  -11.05012216554275    0.39229087542519
O         -11.37634101868403  -11.74762542472078    1.17321581806605
C         -11.56653184489606  -13.14350155065292    1.02906050964440
C          -9.79828624949552  -11.41102853717341   -0.76542581475544
C          -9.09715601331773  -10.20463028613061   -1.18530772345528
C          -8.60614128232164  -10.00408848646702   -2.45740728931542
C          -7.72939394865725   -9.00976870346884   -2.96646219764720
C          -7.55350491482807   -9.24060706596502   -4.30919990543261
O          -6.75026419915788   -8.52098650257962   -5.08887364779677
C          -6.53578585363126   -8.94815420882427   -6.42154287682601
C          -8.40632222944537  -10.36101676538952   -4.71657595933742
C          -9.02233342688039  -10.82643591639727   -3.62076166508072
C          -9.61230959678619  -12.68137596256766   -1.28574711917594
C          -8.50400249937262  -13.07099622485983   -2.03301032308152
C          -8.28109324797988  -14.30999923492873   -2.61279481126899
C          -9.06600219887318  -15.49131752782124   -2.75983826269359
N         -10.42168959812475  -15.73227579678205   -2.56237918150506
O         -11.16665950075323  -14.82809585475458   -2.19005268943464
O         -10.82463867416558  -16.87281752494673   -2.75613303916920
C          -8.21858672139090  -16.53863217171305   -3.19925266144204
C          -6.92884391809232  -16.07748578059789   -3.30227654580116
C          -6.91238830862157  -14.70149839807191   -2.99911543283435
C          -5.79191761870643  -13.86477573741116   -3.04109785638380
C          -5.73193790626523  -12.53848635764045   -3.54132011413905
C          -4.41755988331113  -12.16202961657412   -3.64134294466337
C          -3.60279182544972  -13.22227435094517   -3.15128284102619
N          -2.19968929264649  -13.14471396104593   -3.09206718001588
O          -1.58351193667562  -14.07644786142616   -2.60324637468862
O          -1.67983668712612  -12.14912362954738   -3.56448369822578
C          -4.41952541215675  -14.28263895951081   -2.74665752594424
C          -4.00941338782850  -15.47042495831531   -2.09339224777664
C          -4.72730065329556  -16.22919118649839   -1.21416142169845
C          -5.93391835445790  -15.82938430775636   -0.58142246720915
C          -6.94575774130392  -16.59578572193960   -0.08256420953920
C          -8.22734328227696  -15.92717675943602    0.27267281154008
O          -8.39154016307894  -14.74534545225165    0.50995764908636
C          -9.25948152842565  -16.97072269966313    0.18457597740049
C         -10.61840098742755  -16.85328756914565    0.27405266279058
C         -11.42667778595719  -17.97636572282195   -0.00129454729638
C         -10.81030445400413  -19.21135221782544   -0.35201725122891
C         -11.62380584858732  -20.31856481351972   -0.66109521594405
C         -12.98517781558566  -20.20190402225115   -0.62710483099882
C         -13.59311680092806  -18.97794944004882   -0.28167369635981
C         -12.83104044993209  -17.88728967696537    0.02900971756997
F         -14.92914199192091  -18.89423259140417   -0.25560473098704
F         -13.75791013907547  -21.25448358777152   -0.92075997765993
C          -9.40145806128618  -19.31645192817891   -0.39294632516403
C          -8.63677011514925  -18.21467780542568   -0.12065711413190
C          -7.18701732916415  -18.02857049024143   -0.08093592128256
C          -6.29315194142765  -19.04429390008591    0.11731069053461
C          -4.92959851453962  -18.88231743311088    0.43682684716896
N          -3.82564381618396  -18.81844580237351    0.74439812849827
C          -6.65948294667281  -20.40856267276311    0.14793285138947
N          -6.89377699372446  -21.53125833724241    0.17190513073940
H          -4.21178220439939   -1.79745925727836   -6.78509943441054
H          -6.99313088462586   -5.89915615347400   -6.83920597486735
H          -3.81394606852768   -2.07383265115913   -4.38805112838784
H          -6.57605710729512   -6.23060708316259   -4.41287833900767
H          -3.31931925586553   -4.50715468234898    0.62400729835294
H          -4.61822043601651   -9.19807794278094    2.13129052486560
H          -7.08145902501502   -8.21457911316649    1.98379900139877
H          -6.00751294736113   -3.56099848567197    1.18931190243603
H          -8.38490448331241   -2.45281432580623    1.56089627474174
H         -10.24011583121178   -7.03497820078575    1.13476043231174
H          -7.77316632640284   -7.76441270535384   -0.52549700944353
H         -10.70217637816349   -9.22195781906654    1.57292689505193
H         -12.18599062264382  -13.43305761831783    1.87790765502302
H         -10.60560634693818  -13.66522900655409    1.07630928516149
H         -12.09034651753910  -13.38327758101038    0.09962502746286
H          -7.20407895714453   -8.26078967816711   -2.41150374112803
H          -5.76283535971729   -8.29546275852659   -6.82425661898326
H          -7.44621087557080   -8.85054157050529   -7.02012102726676
H          -6.18714880513546   -9.98305546928142   -6.45526177919962
H          -8.53033578601861  -10.70892193427643   -5.72461752728382
H          -9.78373605533236  -11.57976398664536   -3.58858954647649
H         -10.33026633232213  -13.45075201175425   -1.06487136547327
H          -7.66921414215725  -12.38361841451260   -2.06695199096520
H          -8.56878151973567  -17.53107837505471   -3.41476392602035
H          -6.08024071235255  -16.64242076205345   -3.63664447149181
H          -6.57356305111455  -11.98393766133159   -3.91011743737593
H          -4.02850623677938  -11.23566026384945   -4.01928314597496
H          -2.99898619618292  -15.79131117883120   -2.32115425175526
H          -4.30888779731949  -17.18754231649854   -0.94832833359659
H          -6.12141986047034  -14.76116819252039   -0.52649152890481
H         -11.08170209977689  -15.90973743500504    0.51899087284318
H         -11.17553846783071  -21.26256792317556   -0.92889864100110
H         -13.31075895743171  -16.95435874821639    0.27977270991644
H          -8.96225724699220  -20.26246958179322   -0.66579288155550
