120
 SCF done       -220.568701869540          0.000710551589
C          -1.22459164839514   -1.68720582678884    6.14421147818668
C          -1.95729431935352   -1.41550534602525    7.26521097527737
F          -1.44854315386478   -0.64034094818448    8.23060262544729
C          -3.25456345289704   -1.94568117860080    7.42097375079537
F          -3.94878686985260   -1.66357271693390    8.53063856753591
C          -3.80106918678971   -2.73983128657863    6.45239197026887
C          -3.07087039437202   -3.03860535777189    5.28545603262631
C          -1.75925027173058   -2.50313940385447    5.12640104024488
C          -1.00920661173210   -2.78795790387717    3.96327805591904
C          -1.55483164794979   -3.58275008525675    2.98852374920949
C          -2.86223002523671   -4.11770969312713    3.15800925757199
C          -3.61007758024146   -3.85945860952980    4.27096020987629
C          -3.22207019581568   -4.93984692232572    1.98562774899977
O          -4.27382182832274   -5.50972116503682    1.80369212887567
C          -2.00379554121636   -4.94993706940500    1.12565220273794
C          -1.03092529137187   -4.03359342121001    1.70519559460292
C           0.12356844929176   -3.60382488516973    1.11225063376380
C           1.01932172210145   -2.68613548089810    1.70219383449233
N           1.78388505806888   -1.94852891786997    2.13563894307799
C           0.55010685649978   -3.98521348752281   -0.17888857422544
N           0.94388253180852   -4.23483669151457   -1.22753113326023
C          -1.78606747422740   -5.82195547806584    0.11214388403079
C          -2.77038188919974   -6.74907885701608   -0.41089409347812
C          -4.06309577719995   -6.36507750775028   -0.79615388647841
C          -4.40873259577199   -4.92406700781111   -1.04139445210140
C          -4.54403480740511   -4.66243193080023   -2.54357552041972
C          -4.99009825769078   -7.36628280299475   -1.10730910262119
C          -4.61069370961791   -8.70663517058080   -1.09783271435809
C          -3.30660080817030   -9.06778835186101   -0.80967044131890
C          -2.39090374492912   -8.09490672078566   -0.46929735940426
C          -6.40276151709700   -7.04545946829126   -1.31692210744207
C          -7.17600442419954   -6.47420047038441   -0.35622673586735
C          -8.53819194597412   -6.41120742234859   -0.81703415905314
O          -9.47566834981309   -6.05255818612406    0.06496998735540
C         -10.82451181378357   -6.42885211760739   -0.09894374701037
C          -8.60414170379987   -6.92140960146240   -2.11143328914562
C          -7.24737174970760   -7.31493850586554   -2.48382145732141
C          -6.79224961712377   -7.64102258985581   -3.73518103753882
C          -5.44970010091790   -7.96239748998547   -4.12232826483331
C          -5.42993966862338   -8.19593883338016   -5.46495373454845
O          -4.33193052302307   -8.53057203351527   -6.15191525841032
C          -4.45476470600083   -8.75943583937699   -7.53983608131411
C          -6.78403813871335   -8.00003883088526   -5.99576111878871
C          -7.58766186692669   -7.67208148200173   -4.97418444109349
C          -9.76686757906151   -7.02668108334659   -2.93375195212545
C         -10.66528843787587   -6.01620371136762   -3.09172893212980
C         -11.86705477711699   -6.10891972151753   -3.83183934084875
C         -12.49702617641968   -7.22729510731007   -4.34756662997591
C         -13.71741725061837   -6.84325860501329   -4.94611939115386
C         -13.79956118779060   -5.37022286310608   -4.81165247377712
C         -12.69721538245710   -4.95220063008983   -4.14185773992577
C         -14.80610508801230   -4.52969688795471   -5.29675038027296
N         -15.60542512026264   -3.80073353700111   -5.68458989007493
C         -14.69901743491298   -7.65918751294561   -5.47591241360024
C         -15.98501470994736   -7.27512927948387   -5.93508887229696
C         -16.70966140464561   -8.40661619386484   -6.27258793259741
C         -15.85222133704123   -9.55802167511841   -6.05704915039483
C         -14.64948164820049   -9.12465974968885   -5.58922467001543
C         -13.55435119707997   -9.94257771964286   -5.29482027429110
N         -12.66317115234484  -10.63203929893617   -5.06690721457385
C         -18.05934140093693   -8.40880606791404   -6.68877009562492
C         -18.82636294432888   -9.52071311632836   -6.87811995655511
C         -20.19150123755811   -9.43088565773691   -7.20712278429505
C         -21.12338558595638  -10.43220179358728   -7.23375724928633
C         -22.40581716878904  -10.21105629105163   -7.94915936985957
O         -22.83442056911397   -9.15693678731794   -8.36148434080719
C         -23.01203227226641  -11.55123539373948   -8.08989002848195
C         -24.15082345111562  -11.91170724728465   -8.74947046590975
C         -24.52934873816723  -13.27287950262605   -8.77285901931430
C         -23.70929708966038  -14.23632526459312   -8.11756668577805
C         -24.08791066521323  -15.59343286485572   -8.14983812636490
C         -25.22901264652430  -15.97490108587056   -8.79785474484835
C         -26.04042975184746  -15.02083432077976   -9.44342077762058
C         -25.69897023744696  -13.69755595336155   -9.43250049718663
F         -27.15415186570681  -15.42377525247723  -10.07145699834662
F         -25.58843229815475  -17.26570978709874   -8.82538015493090
C         -22.53719947853683  -13.83130644378894   -7.43797391912042
C         -22.19793507552884  -12.50515278844169   -7.41549836447594
C         -21.09457173062120  -11.79701452462398   -6.76446032276477
C         -20.33710302887310  -12.30717802978929   -5.73981711358586
C         -19.48451647009096  -11.55047145943430   -4.90929874152227
N         -18.81560825581643  -10.99122092249513   -4.16217468473989
C         -20.40393942052925  -13.64877756538838   -5.31040502570368
N         -20.39888583888537  -14.73323550398847   -4.93335134642750
H          -0.23429223315489   -1.27199456311350    6.04048675323050
H          -4.79466187814532   -3.13797530212314    6.58647121667916
H          -0.01730933872312   -2.37493495682868    3.87437412759462
H          -4.60012660335926   -4.27686855109956    4.37442622353595
H          -0.78090895965360   -5.93149962726534   -0.27769783557080
H          -3.62922117253035   -4.27365609723547   -0.64702396730019
H          -5.34412663559459   -4.67327993687116   -0.54262659704494
H          -3.61941230846735   -4.91834259837548   -3.05660120760983
H          -4.75556687267176   -3.61046437694247   -2.71926430444824
H          -5.34895475476800   -5.25398101142636   -2.97121362821512
H          -5.34727622595843   -9.46178091945512   -1.32855986493473
H          -3.01228871997617  -10.10579559353952   -0.83397858905218
H          -1.38150618732591   -8.36865408888808   -0.19927357379784
H          -6.86099952396126   -6.17584224594013    0.62582443820668
H         -11.25492089553910   -6.42195593534994    0.90254716249943
H         -10.90951889204705   -7.42797609579722   -0.53212252889329
H         -11.37146554398995   -5.72239663933271   -0.72896671349151
H          -4.60102721634942   -8.02043128539234   -3.47494619332745
H          -3.45963484217041   -9.03459620581986   -7.88479634591024
H          -4.78281078686702   -7.85746923455852   -8.06467583223612
H          -5.15012360566601   -9.57715913487237   -7.74938454952851
H          -7.06315730835975   -8.09205201330245   -7.02850111348583
H          -8.62628247730701   -7.42091497664801   -5.04310029236586
H          -9.91302857381024   -7.95110553932065   -3.47683596455700
H         -10.43454933378216   -5.04675358835830   -2.66656906239187
H         -12.15282249961547   -8.23921974778234   -4.27065846743927
H         -12.45212680232209   -3.93820452797566   -3.88212908985852
H         -16.34801560407015   -6.26683692973653   -5.97988864965163
H         -16.12359762390435  -10.58116603742590   -6.23601865239422
H         -18.52351915739870   -7.43583656518586   -6.79692927144558
H         -18.38326694314689  -10.49832421206078   -6.76460169939204
H         -20.55779015346426   -8.46284104754824   -7.53529288603367
H         -24.75596166866232  -11.16827719419979   -9.24562021416842
H         -23.48011310338415  -16.33629563176195   -7.65727817467948
H         -26.33050085849606  -12.97917703185291   -9.93132085289522
H         -21.93399899397521  -14.58441026422663   -6.95687968954179
