126
 SCF done       -239.776903453295          0.000207408090
C          -0.26784037992241    1.49568568292677    5.83520901882691
C           1.08079101887398    1.61709346135892    6.01951331175086
F           1.60746083661335    2.79341144936008    6.38240065058108
C           1.93348167896305    0.51016950685769    5.83166256417345
F           3.25099560908833    0.65887531105024    6.02082303889914
C           1.42508903219509   -0.70346167519424    5.46223064562769
C           0.03919752983767   -0.86112421735943    5.26632629581258
C          -0.82393824465038    0.25771314667601    5.45408047941901
C          -2.21753119920434    0.12445609531319    5.25977998721017
C          -2.73163587083906   -1.09073349418736    4.88893034628770
C          -1.86377767206530   -2.20338041159042    4.71257454375140
C          -0.51393943777178   -2.10561402870199    4.89231468038359
C          -2.64872484605432   -3.39436304122508    4.33226867379742
O          -2.21401982362698   -4.50797336408172    4.14961050552068
C          -4.06983234237357   -2.94455068793816    4.32494702150364
C          -4.09804170939331   -1.52194226337512    4.61527839268737
C          -5.19599152876731   -0.70358786400633    4.56074348995344
C          -6.49941727320311   -1.11465700623523    4.20837549402344
N          -7.58047739955392   -1.37008745246086    3.91792716261661
C          -5.16081296593330    0.68207664085046    4.82564420471984
N          -5.19677004882817    1.80950796297207    5.03714525496530
C          -5.16233698061248   -3.76119282485460    4.27350184990604
C          -5.21502963293354   -5.12403776245806    3.88610195607941
C          -4.38557768714808   -5.83876461235278    3.04706538403862
C          -4.87239106517774   -7.17378868541030    2.93748388556414
C          -6.08328427034397   -7.24252782568693    3.77305837525214
C          -6.29324827449274   -6.01024165933380    4.30605501799578
C          -6.89364019012168   -8.36446312473239    3.97574662477894
N          -7.56578956328751   -9.27936646351740    4.15456672797871
C          -4.32361230603750   -8.20232868390271    2.20220258639560
C          -4.74919684744025   -9.55537713322985    2.16916431433402
C          -3.93134176785678  -10.27227847101617    1.31199231159795
C          -2.94962702599306   -9.34284211229861    0.76175939651292
C          -3.16500129879678   -8.11176432606162    1.28824340074409
C          -2.43295929256206   -6.96091840074646    0.96715895253429
N          -1.82000572804183   -6.04071759509408    0.65772764991658
C          -3.97508298312715  -11.64079239253708    0.97638361878756
C          -4.85096570874945  -12.53638357226224    1.52894480353758
C          -4.87265376067635  -13.89557614880179    1.17322491334457
N          -5.71842299159417  -14.82463409975252    1.72796537366203
C          -6.74453481027967  -14.57544098270226    2.71390638520017
C          -7.99242107469590  -13.95296747605803    2.09381407674405
C          -5.51989142676694  -16.11169966082862    1.19245948133561
O          -6.14240266875931  -17.09310087945156    1.53085852637625
C          -4.45062352467892  -15.92708946861581    0.22978720826632
C          -4.07351781802491  -14.57802353856168    0.23564839953841
C          -2.99924340424160  -14.42471705524261   -0.72520884959532
O          -2.34774681862041  -13.45836215979810   -1.06371979871836
N          -2.79981848264643  -15.71639521235545   -1.25141333327649
C          -1.81060143494828  -15.91329200369480   -2.28543591796147
C          -2.44269938491211  -15.96947738370963   -3.67399278497046
C          -3.66187344611129  -16.63218658025421   -0.69495896336346
C          -3.80274969156624  -18.01818183483100   -0.89654558148596
C          -3.13781931274548  -18.85187821687883   -1.75151609744215
C          -3.35396204682225  -20.24358721889507   -1.82368897473495
C          -2.67875854377746  -21.10621032222289   -2.67251725542373
C          -3.12448507438085  -22.43282883849440   -2.45035733524856
C          -4.15468490301883  -22.34314652070527   -1.39603069478356
C          -4.28416871639073  -21.04141024195095   -1.03362488310812
C          -4.89923658531462  -23.40390316515014   -0.86521690068918
N          -5.52863157615865  -24.25366048265437   -0.41759419362341
C          -2.67582296452482  -23.58374660291367   -3.06589682614606
C          -3.03991531056551  -24.92642413636125   -2.78129573843044
C          -2.29387756025217  -25.78746466338028   -3.56724901143891
C          -1.46335029957241  -24.96755461711460   -4.44122338086723
C          -1.68208308852724  -23.65777992305654   -4.15123824394933
C          -1.08636367020377  -22.57919685962402   -4.81450125459719
N          -0.58784327865925  -21.70810643430859   -5.37360359511249
C          -2.41229592257972  -27.20070416115897   -3.49676202223813
C          -1.54560510962303  -28.17970984976082   -3.88971221365704
C          -0.24214587850052  -27.98865949062390   -4.39324553705294
C           0.68019224238224  -28.94502171448940   -4.70856011649757
C           1.81744040575859  -28.57040204832788   -5.59533806774101
O           2.17012724749574  -27.44855281269862   -5.87740072918887
C           2.35775234005340  -29.84953596166537   -6.09452941586275
C           3.33070685765945  -30.06354213113792   -7.02789072862296
C           3.66454617874186  -31.39044629907826   -7.37956450241150
C           2.97479296201203  -32.47263773458018   -6.75931567984083
C           3.30609311312316  -33.79370193603907   -7.12142350534196
C           4.27830316329568  -34.02931866886752   -8.05266110682104
C           4.96122617142229  -32.95827243078818   -8.66394759569572
C           4.66190160839007  -31.66586927799007   -8.33527355626864
F           5.90860981455033  -33.21914512250871   -9.57387063519512
F           4.59215128626275  -35.28497617628891   -8.39496248271735
C           1.97616533159935  -32.22005097591443   -5.79071380224669
C           1.67735551936015  -30.92649212119897   -5.45672845669312
C           0.73983285714440  -30.37124577099143   -4.48092512456924
C           0.21747774720010  -31.05590582242748   -3.41467853650886
C          -0.43232568229598  -30.44369501436452   -2.32165251195538
N          -0.91755911408892  -29.98970488391858   -1.38620488325866
C           0.37364641847167  -32.44524057440077   -3.22646274506362
N           0.45452241411116  -33.57440614289929   -3.03817090729265
H          -0.90573799084892    2.35338782468244    5.98132050706684
H           2.09042197642133   -1.54092305417028    5.32208214672827
H          -2.84398844375565    0.98776976619112    5.41552992685404
H           0.12096861589298   -2.96644321802978    4.74801124495777
H          -6.11418267840610   -3.35015445762455    4.59141181323466
H          -3.52019499425354   -5.46702597137032    2.53803261419546
H          -7.10218921368075   -5.72141351712250    4.95195671431872
H          -5.57495290647660   -9.93943835348461    2.73367423608178
H          -2.18882997145111   -9.61794105268917    0.05493852454376
H          -3.26292141760448  -11.98710170664959    0.23845199004075
H          -5.55335527208641  -12.19848006021184    2.27648858459381
H          -6.34281353312934  -13.93688783573156    3.50504474617019
H          -6.99464959805685  -15.55037376284902    3.14125590461429
H          -7.76421514502684  -12.99943295655570    1.62316677689811
H          -8.73927714054291  -13.78904091696772    2.86505121155833
H          -8.40826215564665  -14.62031005139784    1.34291083737249
H          -1.22836320067907  -16.81165507168614   -2.06853361470292
H          -1.14397544745457  -15.04747413938176   -2.22842152359087
H          -3.18921057666338  -16.75797078042570   -3.73901730318524
H          -1.67433261157378  -16.15144773143094   -4.42003288299964
H          -2.92489485283543  -15.02104730735519   -3.89773775190533
H          -4.56126235050276  -18.44579340407247   -0.25324096277085
H          -2.39009518747147  -18.47441159617977   -2.43204593927657
H          -1.92350967709957  -20.82176732674435   -3.37875719665039
H          -4.95984219464612  -20.66014145226066   -0.29135357404965
H          -3.74496663357813  -25.22435671665214   -2.02984888271743
H          -0.83279697244216  -25.32123699884649   -5.23466080865924
H          -3.32347672277877  -27.53519645972551   -3.01449473471605
H          -1.88586589162648  -29.19947123804432   -3.77632460976421
H           0.08058803313360  -26.98048548202077   -4.61648441837912
H           3.83827868842387  -29.23177756748614   -7.49216601513447
H           2.79597841511404  -34.62517173685004   -6.66068080064069
H           5.19333565940069  -30.85721572745425   -8.81209846498769
H           1.46552874722005  -33.05799819424134   -5.34369080028787
