98
 SCF done       -194.406589216542          0.000300040158
C          -1.94114569148683   -8.63119595287230    9.20180482169833
C          -0.63431680712416   -8.24447320478254    9.30114935562281
F           0.09924225786452   -8.61525189762948   10.35884803018201
C          -0.04134845005973   -7.45382096161326    8.29606000970730
F           1.24261372912822   -7.09097531427063    8.41929135560853
C          -0.76432042150981   -7.06043529691196    7.20514219004648
C          -2.11319861158521   -7.44381332111701    7.07315894342747
C          -2.71448909273048   -8.24268196328268    8.08897885451836
C          -4.06632946616313   -8.63960402212429    7.97766315975903
C          -4.79414738848041   -8.24898616074155    6.88374223868146
C          -4.18444741824197   -7.45635329279587    5.87311827486151
C          -2.88138080606897   -7.05751322391759    5.95276596919941
C          -5.15881919579962   -7.17982556652754    4.79674870652750
O          -4.94320377381490   -6.54333975716158    3.79050563576262
C          -6.39210804072257   -7.91841373000878    5.18387319434233
C          -6.17730294476982   -8.50312755671384    6.49842946259718
C          -7.12339336239960   -9.11368218151546    7.27758323007249
C          -6.86728822865004   -9.63787158841076    8.56228249712833
N          -6.71622395083436  -10.08659798034362    9.60786953546609
C          -8.48100875610027   -9.27537978537043    6.92638225212037
N          -9.59990392509656   -9.43113989697990    6.72146715344668
C          -7.43514652813238   -8.21009143776142    4.36035481975220
C          -7.74332718360318   -7.62502898612855    3.08479323510580
C          -7.51101570971097   -6.26088509488839    2.80996048914726
C          -7.80241160921671   -5.69703259004299    1.59149360008183
C          -8.32689638221243   -6.52702752360101    0.60369591906830
C          -8.58785073260231   -7.89105889202705    0.89037077812994
C          -8.33541386738128   -8.45075445391864    2.11642352071145
O          -9.09674185745606   -8.45454282985888   -0.23571652464866
C          -9.11936553644118   -7.43496497418591   -1.14364063348870
N          -8.68145821951395   -6.29042469837627   -0.68673785069648
C          -9.56660650776192   -7.64254397258269   -2.46762729894725
S          -9.52865621102711   -6.31187513714931   -3.56070069790387
C         -10.07103510930209   -7.28343719155139   -4.88736447846243
C         -10.33455023142725   -8.59898289541499   -4.47142573911385
C         -10.03308391084519   -8.80916817263486   -3.09047208205764
C         -10.22587022675138  -10.07543318758204   -2.50876134990434
C         -10.73362937159418  -11.10345417093801   -3.25915628252069
C         -10.95139169528979  -12.46336063003464   -2.67626477581134
C         -11.08718232347494  -10.87236069238622   -4.60916585653829
C         -10.90208585197020   -9.65997692252608   -5.20738742970961
C         -10.15179658762724   -6.68465681769272   -6.17639406984824
C         -10.03238027714326   -7.33916251762916   -7.35236971493333
C         -10.11309455347237   -6.74589548296419   -8.66376154331036
C          -9.65636748996236   -7.51137582504021   -9.76399126951940
C          -9.68883588126021   -7.05633197929876  -11.05686978121259
C         -10.21712694234972   -5.78388767322516  -11.26986482574377
C         -10.68414716421624   -5.01486984659162  -10.17308523753451
C         -10.64039039384878   -5.46885508568485   -8.87440464863623
O         -11.15235050692562   -3.84939660011338  -10.66764616927034
C         -10.97809220709533   -3.94962919451835  -12.01709369065113
N         -10.42419436728523   -5.06842750571639  -12.40308203063598
C         -11.33858573270001   -2.84510131907979  -12.83469625093359
C         -11.33564354383823   -2.79228332215043  -14.18847993987558
C         -11.34020023482272   -1.46454877049366  -14.87346194870233
O         -11.63304235242114   -0.40009375726376  -14.38488869077854
C         -10.84929590401705   -1.73893179362862  -16.23788934518462
C         -10.55123572804126   -0.85239766691404  -17.23324218268668
C         -10.05667744953356   -1.34068703582700  -18.46286539680932
C          -9.87325021835948   -2.74399494463585  -18.63500881764494
C          -9.37033948909291   -3.22339105678405  -19.86149129402720
C          -9.06733133871949   -2.35210042893506  -20.86971336433967
C          -9.25154507402766   -0.96479884822408  -20.69911272935973
C          -9.73576974654876   -0.46838325300224  -19.52154332472333
F          -8.94565493795875   -0.13458386789076  -21.70468465776460
F          -8.59023393484096   -2.80948947212103  -22.03416251824923
C         -10.19786384505634   -3.63854913392481  -17.58987220184799
C         -10.68693861951227   -3.14437910106430  -16.40983422746150
C         -11.14248422300046   -3.81865467130981  -15.19662980764980
C         -11.53238620564423   -5.12471766700922  -15.11269668201644
C         -12.26837532401663   -5.66475241869350  -14.03445767616279
N         -12.96655577166312   -6.14138716298738  -13.25828191520308
C         -11.35580373217851   -6.06039597085232  -16.15366458369686
N         -11.21564607152072   -6.85949357833194  -16.96524208419612
H          -2.37975100100263   -9.23509043258109    9.98081542950195
H          -0.29633383346564   -6.45588903523418    6.44403830322309
H          -4.49035357779678   -9.25054287339207    8.75810244444141
H          -2.44410889630569   -6.45621045990820    5.17020152024726
H          -8.09412488841903   -9.01836226277682    4.65727507730026
H          -7.12191239706396   -5.63671517292296    3.59682317320130
H          -7.63043317961169   -4.65260317227742    1.39277553849249
H          -8.54228665101336   -9.48996800334933    2.31854323546932
H          -9.98169589482597  -10.22006983857686   -1.46868514624092
H         -12.00253806826018  -12.74051214435656   -2.74716686436284
H         -10.65136577569439  -12.49440211311254   -1.63246204183679
H         -10.37628789632787  -13.20581128432667   -3.22856125066751
H         -11.52560424914051  -11.68467417218364   -5.17020372599713
H         -11.21777150248899   -9.50078688705427   -6.22546825738729
H         -10.23897949762794   -5.60657618514925   -6.17123237898361
H          -9.80231963313822   -8.39477613242808   -7.33903988275608
H          -9.26129864041199   -8.49658633399219   -9.56363882793322
H          -9.33951724463257   -7.65069186335217  -11.88466288017679
H         -11.02172048598112   -4.86767015658226   -8.06636409268153
H         -11.55816605130678   -1.92562113641011  -12.30510977090967
H         -10.68990197890474    0.20751086505361  -17.08347629768750
H          -9.22678248604858   -4.28219770021072  -20.01009340927887
H          -9.87088323733443    0.59566373221360  -19.40657730217500
H         -10.04362767417794   -4.69456635911911  -17.74381620521589
