96
 SCF done       -202.635756042773          0.000387146526
C          -8.99772964920804    0.20080880917307    5.88461186161048
C         -10.34372823064413    0.40229734503431    6.00786406981096
F         -10.80671174289969    1.45822146375388    6.68517923812701
C         -11.26099059495157   -0.49731179282941    5.42515846156926
F         -12.57267884395310   -0.27479565139901    5.56355525764752
C         -10.81855848434990   -1.58581463655069    4.72706735035559
C          -9.43714891260389   -1.82155097954750    4.58310447383012
C          -8.50875516236905   -0.91239299653322    5.17094441034288
C          -7.11902230888908   -1.12793156853228    5.03886162167540
C          -6.67029923643848   -2.21931270344333    4.34018066753139
C          -7.60366889390212   -3.12537206510344    3.76210835824641
C          -8.95310128608762   -2.94130448395041    3.87269016836529
C          -6.88626982454076   -4.21762298706709    3.08052687594780
O          -7.37875350724643   -5.13981091517496    2.47334282243758
C          -5.43779411109398   -3.97270242278383    3.36404204252576
C          -5.32273230473693   -2.68667606858367    4.04656554979666
C          -4.16250491696741   -2.00780202439362    4.28794863921105
C          -2.87830509378800   -2.45524543345321    3.90401403694220
N          -1.81285063161931   -2.75511602183290    3.60260118838618
C          -4.10482494082715   -0.74622601536855    4.92098440725794
N          -4.00293621527549    0.27468948500405    5.43357486791474
C          -4.45678174328401   -4.89056966547924    3.22481752871899
C          -4.57951953551973   -6.16357395787623    2.54062829587091
C          -4.01492595977308   -7.29786251241660    3.11902760654585
C          -4.15526126058239   -8.53560737136362    2.51426977473040
N          -3.50483051401933   -9.66363168084991    3.13272742641397
O          -3.20405718575262   -9.56221146529167    4.30141505249227
O          -3.28474445520000  -10.63899600807066    2.44327858254279
C          -4.84263050888263   -8.68190674846181    1.29991676257623
C          -5.32967043135974   -7.52354432579272    0.69133442266840
C          -5.20897521038991   -6.29117083448373    1.29697878182291
C          -5.08720277407450   -9.97742943663777    0.69134697778502
C          -4.88753209052771  -10.32272574821631   -0.60972580880509
C          -5.26006028949295  -11.70208997540129   -0.78963985219567
C          -5.76152079248469  -12.15792593537051    0.51995679760849
C          -5.64513948412836  -11.12803909161017    1.39583910443096
C          -6.28830024158626  -13.41800736471890    0.82598926850359
N          -6.73287149852406  -14.44190193313700    1.09723046723708
C          -5.14761651767408  -12.45688689372632   -1.92372733909063
C          -5.48993322818014  -13.83956355938852   -2.07319372852000
C          -5.20806889357869  -14.23757470953920   -3.35568293606227
C          -4.66834861436938  -13.09204784545663   -4.08188889959933
C          -4.63413382816318  -12.02835464613003   -3.24011178543229
C          -4.19771595594074  -10.74088549951157   -3.57671074322364
N          -3.84965432444394   -9.68475488918675   -3.86269227826754
C          -5.42611700941964  -15.54027963615429   -3.87900217753949
S          -6.17603373046836  -16.73601255209164   -2.84566204569118
C          -6.14538750667658  -17.96361314719378   -4.08691265945003
C          -5.54453470149225  -17.45262163259977   -5.21742245569456
C          -5.16142084213101  -16.09525359805912   -5.12040551219287
C          -4.57037948590685  -15.65376540605775   -6.39408488712777
O          -4.10166313650221  -14.57871909466803   -6.66974228431744
C          -4.65087135433950  -16.84617076008071   -7.33528636593816
C          -5.24240934857332  -18.00184397670650   -6.54562250096447
O          -5.40999697943053  -19.12929075055863   -6.92988778807519
C          -6.62260681362601  -19.28931694854564   -3.88625029870930
C          -7.61169345337087  -19.69507192218312   -3.05605298411231
C          -7.70204452707204  -21.12842514610111   -2.63123929735341
O          -7.14027644967960  -22.06684733550409   -3.13687865762416
C          -8.56095492395017  -21.11157565479023   -1.43032301104688
C          -8.85829486176556  -22.13497206399957   -0.57597207726986
C          -9.69412143657386  -21.88153678406714    0.53436538301890
C         -10.19856049850159  -20.56459861647524    0.74715014882395
C         -11.02445046314130  -20.31822566630523    1.86251589793240
C         -11.34030986105970  -21.33218049569889    2.72253835503087
C         -10.84378305385365  -22.63495356199643    2.50958383806795
C         -10.03744789856587  -22.90496119635998    1.43956129487242
F         -11.16995997198913  -23.60802560547675    3.36852217623207
F         -12.12748775686923  -21.09846754641477    3.77875798612223
C          -9.87879763378211  -19.52568401162330   -0.15555785341043
C          -9.08055218908408  -19.79905757631068   -1.23420055079721
C          -8.63182646486931  -18.95417984975477   -2.33432663458574
C          -9.25405192979671  -17.81530564406634   -2.76621210598924
C          -8.94731956935526  -17.17637483634901   -3.98662547817666
N          -8.74720764551732  -16.65084705414388   -4.98703105604839
C         -10.33189249571533  -17.20750740519189   -2.08734814645846
N         -11.20627953851921  -16.67579522601691   -1.56957069963361
H          -8.31012323928715    0.89939566775268    6.33521492848342
H         -11.53288874267340   -2.26448180187915    4.28795652382507
H          -6.44151113166727   -0.42818400283090    5.50098850289364
H          -9.63981858788208   -3.64296681648340    3.42409962567095
H          -3.50141510135446   -4.71617598376052    3.70495378371404
H          -3.47439460405679   -7.23479274784217    4.05243959274516
H          -5.83606251290613   -7.61164382093624   -0.25722678960121
H          -5.58666181349500   -5.41384110756075    0.79801896769991
H          -4.46299820886671   -9.70311312347033   -1.37473728196671
H          -5.94313897662686  -11.13458303129365    2.42819844542922
H          -5.89736435860797  -14.45588606391326   -1.29565690591931
H          -4.35846083147157  -13.11521850972685   -5.10988601984907
H          -3.66844468738269  -17.09681057716671   -7.74109889439844
H          -5.28717941630926  -16.60749515316072   -8.19111297863553
H          -6.09574378736239  -20.06498240347617   -4.43495124318276
H          -8.46217652218484  -23.12453307140933   -0.74561223002543
H         -11.41477461289473  -19.32800022264441    2.03810416852505
H          -9.66542518343988  -23.90664721191507    1.29159631033698
H         -10.26168391885332  -18.53513555639575    0.03222409621590
