126
 SCF done       -252.406318073865          0.000625140991
C         -16.54555572790216    2.92127689848086    3.11829837344577
C         -16.46572912917909    4.20335750301908    3.58432882852888
F         -17.45589080246443    5.06997395104575    3.34318580942117
C         -15.34251787743149    4.63079523513658    4.32298906335019
F         -15.29231637145068    5.89254796640830    4.76552254640801
C         -14.31464863272953    3.76906124002375    4.58502301035745
C         -14.36686809630056    2.44126948755295    4.11740322032290
C         -15.50174637103182    2.00745306023818    3.37074221740201
C         -15.57611855681746    0.68084438996210    2.89151103031142
C         -14.54761238256323   -0.18953476069074    3.15092692350461
C         -13.41993181994605    0.25297352043519    3.89866753156486
C         -13.31897010857263    1.53059432932819    4.37172645245090
C         -12.46174857769572   -0.85226775053062    4.04966160032210
O         -11.35895563005512   -0.79775484071715    4.54604828867669
C         -13.10219101645039   -2.03258283352266    3.39330931823018
C         -14.35818903282614   -1.58901312232778    2.78994863838308
C         -15.20728458051269   -2.34134571652321    2.02970084874557
C         -16.41645255135030   -1.85979495003769    1.47904796499870
N         -17.40623120364091   -1.52809860252311    1.00358108514569
C         -14.99452065465363   -3.69042033298760    1.66964145330250
N         -14.87677206537588   -4.78216164983508    1.33662657963205
C         -12.57019081010573   -3.26834943257942    3.38552692338715
C         -11.37301241369619   -3.61829814235880    4.18736099090758
C         -11.81433559219578   -3.91191805155249    5.64589060847180
O         -12.49505073524203   -3.22490731220788    6.33846957635486
O         -11.31277489973019   -5.10429267111771    6.02366259986204
C         -10.64019861084799   -5.68452258687254    4.97623872861567
C         -10.65630156702557   -4.87658884644486    3.83646107649533
C         -10.05090248035742   -5.27937165979473    2.66062374956560
C          -9.43049564522788   -6.51541216348334    2.70015035096273
C          -9.41050478580466   -7.31994110594121    3.84216197159714
C         -10.01889486580142   -6.91938125254257    5.01682202122370
C          -8.62165970360135   -8.54999478044534    3.51957003878040
C          -8.25014065568758   -8.29018806399164    2.04567725147805
O          -7.60940372122951   -8.98854110595743    1.32631657792404
O          -8.75741726209469   -7.09242649084636    1.65676826633834
C          -7.38075179358882   -8.68436077533603    4.34597471136682
C          -7.01145881576031   -9.84019446765879    4.90715186557486
C          -5.86325018873513  -10.15245189058156    5.70613523364586
N          -4.76232866049101   -9.38584986073528    6.01440225007552
C          -4.47584451100606   -8.02095019934269    5.64779905174265
C          -5.18279721933835   -7.02620419266543    6.56654102501972
C          -3.84286951540226  -10.09511464265218    6.81610609535406
O          -2.78938318384097   -9.62343448326811    7.19841310011730
C          -4.44479882133817  -11.39152814595769    7.00239275419629
C          -5.68358806835917  -11.38891404669331    6.30228810641782
C          -6.29115458728984  -12.68939013006148    6.45712165500510
O          -7.33642413467835  -13.15886856986384    6.06120264999586
N          -5.36297029077231  -13.40558915215862    7.24632240609650
C          -5.58505179396056  -14.78875316422624    7.58703128860128
C          -4.77881486215126  -15.73259328876651    6.69645925528751
C          -4.26764549470588  -12.64173611547329    7.57065195709031
C          -3.17240770666483  -13.12618951493788    8.35290804989325
C          -2.12465145214748  -12.36093961037787    8.68868255167663
C          -0.96893537897584  -12.90805207296222    9.47669316173863
C          -1.42120670388268  -13.24215080951354   10.91122723952692
O          -1.82581810092673  -12.49416335029994   11.74238877504621
O          -1.31252955786786  -14.58244051791447   11.11710749771611
C          -0.80036853976314  -15.18153220502384    9.99739397205130
C          -0.53551420822870  -14.25422107703123    8.98673680934702
C          -0.02872732396432  -14.64750666826727    7.76278098138237
C           0.19371252961169  -16.00482384297124    7.61725391428648
C          -0.08000603972333  -16.93427487524498    8.62263120421301
C          -0.57920906147932  -16.53960708235865    9.85001200810258
C           0.28078198077773  -18.28988664520444    8.09904714409709
C           0.74065384284130  -17.94367707013603    6.67393856089032
O           1.08536801652068  -18.70558336888607    5.82173507254545
O           0.67963747305300  -16.60823970492930    6.48436802590703
C           1.36600777960972  -18.94973238728632    8.90398268839889
C           1.34377182421874  -20.21548069345875    9.30698673327158
C           0.29448872479332  -21.17265417723491    8.99840077923232
C          -0.05044348256780  -21.65472531975049    7.79166960898133
C          -1.36779392917669  -22.34346553429010    7.60351105127472
O          -2.09098838831504  -22.75782378667918    8.47689951773051
C          -1.60819478107001  -22.31404692073929    6.14927850719583
C          -2.72874615266012  -22.68182231230629    5.45839131582593
C          -2.75456834601042  -22.51798768799707    4.05616481807641
C          -1.61944462729156  -21.96338864582703    3.39379744092252
C          -1.66038680471369  -21.78883720479234    1.99528758981500
C          -2.77170249256476  -22.15156930532664    1.28788918838104
C          -3.89201989077802  -22.70306992276187    1.94356172052489
C          -3.88515431885060  -22.88258085250630    3.29806439742412
F          -4.96754592126395  -23.04877987233768    1.22457586406576
F          -2.80923199946348  -21.98639253577955   -0.03979014089932
C          -0.47108410701831  -21.59976197509300    4.13186557150887
C          -0.46183701105249  -21.78383464137217    5.48917704818276
C           0.57355275486959  -21.52163339330668    6.48011826220256
C           1.90594078699227  -21.39025901538259    6.22612309308104
C           2.89414144583863  -21.33142762227098    7.22969243793061
N           3.74026387887228  -21.33067421586215    8.00470715526480
C           2.45757011155299  -21.38910674244001    4.92518702020437
N           2.95399611648272  -21.41232403452372    3.89218941449687
H         -17.41200680519491    2.61122599910155    2.55525233407396
H         -13.46278533230996    4.11063070202725    5.15186285454100
H         -16.44815337413226    0.38472786783517    2.33131846167031
H         -12.45150595771424    1.83742040381448    4.93587027414850
H         -13.04723697121659   -4.08480594573979    2.86215428108609
H         -10.70247686774867   -2.74914881271185    4.24515757970901
H         -10.05404420089050   -4.67460977712218    1.76985340855698
H         -10.01395271025198   -7.52573146018253    5.90659091931293
H          -9.21282658839110   -9.46843170910198    3.57723999501745
H          -6.81138499560082   -7.77453086080949    4.44478930018478
H          -7.64906818220955  -10.70667243005407    4.77709430356839
H          -4.73527506930131   -7.86233707704198    4.59857782917981
H          -3.39357111759769   -7.90295761473923    5.76020553871498
H          -6.25884901875155   -7.18718342721547    6.57053522139530
H          -4.97811377873560   -6.01027852516998    6.23966555245421
H          -4.81572370718696   -7.14389211839723    7.58306215100920
H          -6.65307533867419  -14.96786760756054    7.43321894931511
H          -5.34991405460022  -14.95125468464068    8.64293666233203
H          -5.06082272910577  -15.58961649672436    5.65635930499207
H          -4.98322220886792  -16.76334682337098    6.97323276322120
H          -3.71022425366389  -15.54854024598737    6.79213734337100
H          -3.21170539142536  -14.16143771048445    8.66495705075310
H          -2.08582646586069  -11.32205046635803    8.39633522283245
H          -0.16005951938229  -12.17571963046689    9.51302361048557
H           0.17562688799320  -13.94851100827972    6.96995032550308
H          -0.79123438891171  -17.23938237604504   10.64042217693748
H          -0.58301628368683  -18.96026958288558    8.03077966042231
H           2.17671870868124  -18.30105417977219    9.20110698222543
H           2.12167565609757  -20.57386929745819    9.96929892042893
H          -0.31326716796901  -21.50158804759080    9.83771614344764
H          -3.58462080843264  -23.08829376462981    5.97571511442678
H          -0.81036602423377  -21.37123476016798    1.47885101296291
H          -4.75044155350759  -23.30516218944129    3.78439235443436
H           0.37040555032915  -21.16606535504987    3.61642542139263
