123
 SCF done       -245.778836719842          0.000803991592
C          -4.35796750397546   -1.29881516971547   -2.24382360843381
C          -4.04259101955296   -1.40646473818823   -3.56930410692921
F          -3.35348784546616   -0.43470715134439   -4.17859865704257
C          -4.43661596977012   -2.53917473300683   -4.31077444793383
F          -4.11310359889121   -2.61834497657361   -5.60755045709639
C          -5.14142075826425   -3.54798262264625   -3.71631402067513
C          -5.48151921815063   -3.46670863474434   -2.35179325576982
C          -5.08143076810374   -2.32308213155514   -1.60053345305805
C          -5.40403152269275   -2.22380047487221   -0.22814341070895
C          -6.10145351307050   -3.23792975106033    0.37350321437118
C          -6.50789771705861   -4.37203839875768   -0.38598135878770
C          -6.21185712178225   -4.49352942612293   -1.71396342981668
C          -7.26081893675975   -5.30086882633200    0.47517717914010
O          -7.79853054053024   -6.33458751400334    0.13736467242489
C          -7.30128315622022   -4.65342054062349    1.81242801669815
C          -6.53845279097916   -3.42119965072182    1.75184237427940
C          -6.19568223618167   -2.64101865555749    2.82234760630660
C          -6.50126401144750   -2.96874577053475    4.16137711616244
N          -6.67188054270112   -3.21919853215020    5.26807681902446
C          -5.43541034111893   -1.45653371750508    2.72502151248792
N          -4.82810728052957   -0.48356028744178    2.69582791303626
C          -8.10019935643972   -5.07265322945421    2.83024712362148
C          -8.72813923395637   -6.34768876491670    2.88738650862917
C         -10.05456364351799   -6.60710515545283    3.20254722993073
N         -11.02263043623032   -5.63930903270357    3.53117124319543
O         -12.10903668960048   -6.03493574360399    3.90760961153469
O         -10.70764651783283   -4.46423658053645    3.42962878898927
C         -10.31415922415006   -8.01137668039758    3.08023583271647
C          -9.17128945052121   -8.61865395561786    2.66337161916159
C          -8.13047020585514   -7.63178864418418    2.54416840535888
C          -6.77754090492427   -7.87027748028010    2.35998071602022
C          -5.70335617520941   -7.14867279355496    2.93810467898914
C          -4.53958312133056   -7.84972905017554    2.74286349748034
C          -4.81630933118258   -9.00895044851065    1.97020957145131
N          -3.82914209158394   -9.90479709355368    1.55295361806419
O          -2.68753097351848   -9.71001293661027    1.93660400759532
O          -4.15034615179008  -10.84934594360733    0.83888532942455
C          -6.19242839658294   -9.03598641858346    1.66673025297634
C          -6.84135046867342   -9.88536260958333    0.77988481020454
C          -8.05317640019909   -9.61808753181732    0.16420264178097
C          -8.73168902807848  -10.55912441598870   -0.59860703249696
S         -10.21573223919011  -10.15846485257896   -1.42356343382989
C         -10.41060828159162  -11.75516685995413   -2.07261572037086
C          -9.33643515474824  -12.58146747621249   -1.66965156156583
C          -8.40517613207084  -11.91994233890765   -0.83423709143130
N          -7.34224957383125  -12.56156857766294   -0.32645888789970
C          -7.19359749062873  -13.82408189865545   -0.66261581688415
O          -6.16804079595813  -14.52847216557833   -0.22887379868162
C          -5.21139616748208  -13.88335997413562    0.62323500048884
C          -5.73395602514410  -13.71814543440835    2.04234864779481
C          -8.14390493318441  -14.50184391046076   -1.51476336336236
C          -7.93149412404960  -15.94565674745742   -1.83693157088891
N          -8.85548514081410  -16.41546734745076   -2.84036635700583
N          -9.18759365056531  -13.88216797868081   -1.98700040696759
C         -11.52443804923494  -12.11784702235773   -2.84194207344345
C         -12.63971175271419  -11.33955687032698   -3.12373992429064
C         -13.56335001679103  -12.10988664739869   -3.86763490286730
C         -12.93029549027218  -13.43012218392853   -4.06837334570747
C         -11.71689382004542  -13.42218400159984   -3.46057589478301
C         -13.46068510514373  -14.51137151835038   -4.78264328962528
N         -13.87041068600520  -15.41472650432533   -5.36150776408063
C         -14.82383180714457  -11.73553606089051   -4.29370341032287
C         -15.80161322911141  -12.55045610903546   -4.91699011911020
C         -16.94648791070053  -11.80438875307201   -5.13174700271372
C         -16.68882064232164  -10.45187877411404   -4.65512910969962
C         -15.43105107042325  -10.39712487588279   -4.14830958267308
C         -14.81861093057484   -9.25842705200815   -3.61338984631537
N         -14.33391951151172   -8.30992672021609   -3.18342673052338
C         -18.19371074625997  -12.21897053606998   -5.65467748808785
C         -18.46739632184534  -13.48013314664262   -6.09366862175597
C         -19.70569460718080  -13.91716969231308   -6.61764409043873
C         -20.97121009808890  -13.42916904144590   -6.46031412620366
C         -22.00834366491685  -13.85270626888343   -7.44933029358271
O         -21.90473929772618  -14.74313286115880   -8.25917539450128
C         -23.13893226479956  -12.92683420131634   -7.25289165638852
C         -24.28655283124165  -12.80670321785503   -7.98250433598382
C         -25.22554915503049  -11.81353435929170   -7.62542471598165
C         -24.94970641080283  -10.95611002610311   -6.52065940855089
C         -25.88464015515927   -9.95914898935241   -6.17683687727339
C         -27.04069387423234   -9.82285561027191   -6.89306703536051
C         -27.31407171306849  -10.67384393164249   -7.98341795443264
C         -26.42631213106811  -11.64885465834764   -8.34303504407046
F         -28.45439852266728  -10.51689480918502   -8.66691818563043
F         -27.92757796476823   -8.87581713755507   -6.56520681563264
C         -23.75585690178129  -11.11032891252279   -5.77905264079019
C         -22.86700418497678  -12.08970660037830   -6.13383260455159
C         -21.59039520179410  -12.49552370586149   -5.54516140361996
C         -21.20309285087620  -12.20999883535208   -4.26092771124547
C         -20.07439574730897  -12.76437036848920   -3.62660974754807
N         -19.17357170523028  -13.19119764730143   -3.05765094189813
C         -21.93148640844773  -11.37088731507151   -3.39130150108101
N         -22.47518780630634  -10.68325731167323   -2.65086374088369
H          -4.04757346507249   -0.42620475002758   -1.69062597085423
H          -5.43607574132424   -4.40726509995665   -4.29807916628037
H          -5.09463291751738   -1.34464916521016    0.31386121126483
H          -6.52906550686230   -5.36278739228621   -2.26981287217162
H          -8.34870390883043   -4.38435588831744    3.63063652863168
H         -11.26514509090775   -8.46217987498299    3.28940227792928
H          -9.01577060573269   -9.67403163253640    2.54962407877841
H          -5.81058351956798   -6.26649166202180    3.54008328123722
H          -3.56121781787250   -7.59256855187814    3.10422716330001
H          -6.32660198893179  -10.79755012769204    0.50136028842693
H          -8.47104562139258   -8.62161177613142    0.22161710215080
H          -4.93959950625217  -12.91070190730302    0.20660068453586
H          -4.34664649748559  -14.54843622162403    0.60471920350150
H          -6.59975018036746  -13.06108844275554    2.05233608874293
H          -4.95290429609763  -13.27623155169279    2.65277335661123
H          -6.01181186481161  -14.68162790295076    2.46330931183519
H          -7.97789220745289  -16.49749867258339   -0.87775874015157
H          -6.90928405454023  -16.06577840475824   -2.21351979824958
H          -9.81194541484768  -16.22698431709603   -2.56531576211778
H          -8.74612074481388  -17.40942472710693   -2.99759817336812
H         -12.79201452071293  -10.32911237637842   -2.79753125943707
H         -10.98890255906514  -14.20983567419513   -3.43313343159735
H         -15.66523249572706  -13.58691914250734   -5.15090645343538
H         -17.39499470695452   -9.64316140503054   -4.70029245077906
H         -18.96011188026267  -11.45632603855406   -5.72313075372009
H         -17.66327308678516  -14.20235446129459   -6.12056868255215
H         -19.65170109913390  -14.75521151547965   -7.30852862999950
H         -24.47425359175297  -13.45911110343124   -8.82153831375163
H         -25.69355550218064   -9.30221885393030   -5.34271410218907
H         -26.64986560450574  -12.29175862327007   -9.17988730147801
H         -23.57149951121310  -10.44160868538379   -4.95358369432510
