112
 SCF done       -233.682083075295          0.000844271832
C          -4.01949816998329   -4.20495173407402  -11.35376364383212
C          -4.31737241042475   -2.94441080435047  -10.91779377916872
F          -4.19790680650822   -1.90161620104827  -11.74748356762656
C          -4.75132464486594   -2.72414240703657   -9.59378659447494
F          -5.03189667951389   -1.47762703193017   -9.19921634630301
C          -4.87468145641573   -3.76837008103752   -8.72097283228026
C          -4.56979851188035   -5.07777217772780   -9.13916989155929
C          -4.14034647523053   -5.30434345589360  -10.48015965289970
C          -3.85116799741589   -6.61310852340268  -10.92801182366510
C          -3.99408417956256   -7.66853464609851  -10.06456381939461
C          -4.41006206707032   -7.42924722868005   -8.72301679761904
C          -4.68566713402790   -6.17385018301605   -8.25922034005605
C          -4.51376796371736   -8.70812393055574   -8.01135065263666
O          -4.68216869211699   -8.88749434702827   -6.82555231582787
C          -4.30538370526028   -9.75948009872069   -9.05189789270346
C          -3.85465045158955   -9.10697183232466  -10.27028057296202
C          -3.44271378108920   -9.72134237168257  -11.41989857871349
C          -3.42022402752922  -11.11918298347959  -11.62260192848810
N          -3.41825234367107  -12.23889878492181  -11.87164101004823
C          -3.00013294324797   -9.02877451980887  -12.56824437504375
N          -2.62495565354252   -8.51955706732819  -13.52533319519605
C          -4.58043083120784  -11.06905772240537   -8.82555947900417
C          -5.25066523957078  -11.50600419775441   -7.64096540688888
C          -4.84747069499412  -12.52404222150795   -6.80612869750082
N          -3.75135268901441  -13.39118508903804   -7.00145772538109
O          -3.61877653227746  -14.30387548999648   -6.20725167632033
O          -3.02374137177125  -13.18532817080621   -7.95487397663968
C          -5.63157119713059  -12.49476778889185   -5.60151349917788
C          -6.49433113173587  -11.45505381983890   -5.67023740856989
C          -6.39709471996969  -10.84606221106955   -6.97390815655377
C          -7.21515038357441   -9.92529730637966   -7.58956283053107
C          -7.10795681794207   -9.57215422086143   -8.98829473887690
C          -7.48880196014483   -8.28415954050665   -9.14355031090152
C          -7.93694241807566   -7.78572474556156   -7.86998409415254
N          -8.29174391967952   -6.44324116345748   -7.69078591981663
O          -8.80735749832513   -6.08972451324824   -6.64138161890715
O          -8.01788144278903   -5.67609066186837   -8.60440320663303
C          -7.95093453731898   -8.81998146786358   -6.93404769823122
C          -8.52648102435904   -8.73808503112294   -5.64667807652144
C          -9.05451104297320   -9.77888660579813   -4.94808862533132
C          -9.63618623155755   -9.65521734759388   -3.66356162105095
S         -10.11975879179637   -8.11829652810031   -2.98353535907130
C         -10.65508831159875   -8.86831577655878   -1.53308550741638
C         -11.25714359909170   -8.07276545136052   -0.44076481656108
C         -10.43053786517167  -10.23492471536619   -1.55068363808398
C          -9.86981920504526  -10.67383373332952   -2.76295750213317
C         -10.66659761191758  -11.14756274996589   -0.44292843822452
C         -11.85829017960417  -11.56267370563032    0.10435768871824
N         -13.15014970076725  -11.12187108263823   -0.23125222849520
O         -13.25814624410427  -10.20126219101406   -1.02735866567051
O         -14.09284623059453  -11.68998229893532    0.28909659139108
C         -11.60675324570693  -12.62262921962644    1.05615576051057
C         -10.28136282631822  -12.88658904266155    1.05970105550298
C          -9.62242964922028  -11.96819290327705    0.15792133080047
C          -8.26820901647415  -11.77152424990180   -0.00086510200448
C          -7.65669780378740  -10.53953509425936   -0.41906674849217
C          -6.31212126359597  -10.61346392335680   -0.27449328060301
C          -5.96613537448768  -11.92082569120810    0.19846455771242
N          -4.74916455864233  -12.25884347658123    0.52848900651393
O          -3.71133616201004  -11.62982146921655    0.33260922196913
O          -4.62555677332153  -13.48296328358604    1.18112656181521
C          -7.17772873401563  -12.72115335827173    0.26918489004329
C          -7.39468217496863  -14.06496174418251    0.20675609576074
C          -6.57391980065995  -15.22866845926996    0.02644451171789
C          -5.24897791032893  -15.45667157786396   -0.01403443219704
C          -4.12815473963310  -14.55412863330398    0.36339173444432
C          -3.09850641319037  -15.28200303394648    1.30427007421482
O          -3.39689575071157  -15.99100035165415    2.22034591396006
C          -1.77230651931077  -14.88555868769466    0.82907194694245
C          -0.56334178440921  -15.12412766277643    1.42506942581154
C           0.61165200306906  -14.64688624688672    0.80723563458841
C           0.51725405688315  -13.93225804556137   -0.42537826634348
C           1.69676402994955  -13.45393099712164   -1.03336628621319
C           2.91116223371997  -13.67483401790748   -0.44711270513306
C           3.00337250131568  -14.38315602190073    0.77096615606049
C           1.87911211670479  -14.85953553150649    1.38528302967455
F           4.20470657826660  -14.58333403685324    1.31978266449029
F           4.02836103241595  -13.22155152709921   -1.02096245834823
C          -0.74001510048953  -13.70748485063211   -1.02283419128014
C          -1.87235550504318  -14.17667697971975   -0.40196339431375
C          -3.25926805483793  -14.06006239747377   -0.78443953586666
C          -3.76686693356981  -13.60501584668657   -1.95997444420876
C          -5.15038334640334  -13.52661445055994   -2.22976427144316
N          -6.26093817122749  -13.42816266759072   -2.50264749018150
C          -2.98936555205140  -13.09262922169753   -3.02746309661731
N          -2.42314375158711  -12.62931946106561   -3.90866805961219
H          -3.69317151621614   -4.35450840725635  -12.37116994937781
H          -5.21539914699440   -3.58641088167255   -7.71418995347530
H          -3.53645505085492   -6.75004850270208  -11.95008998414731
H          -5.00343512668583   -6.02282856834944   -7.23874381649710
H          -4.25713869437582  -11.83449343302306   -9.52131349668270
H          -5.50660108982298  -13.18871364808989   -4.79570832597702
H          -7.17228726216717  -11.16891775606952   -4.89492091759934
H          -6.78626988034692  -10.24407334297324   -9.75936853748084
H          -7.49786002107608   -7.69780363431778  -10.04279361676635
H          -8.64336569382840   -7.73827305145390   -5.24465877428339
H          -9.07218190997246  -10.77221444566126   -5.37658891008945
H         -11.00755869784359   -7.01975821355468   -0.53983409102332
H         -10.93075482353295   -8.43892094178210    0.53197089067073
H         -12.34349471542020   -8.17971862271305   -0.49112278404703
H          -9.63297681856054  -11.70355090921105   -2.96503487929711
H         -12.37823576142682  -13.08809354773205    1.63820502194547
H          -9.77471053727968  -13.57405555654681    1.70867104977335
H          -8.20059996763261   -9.66352645763295   -0.71178460667007
H          -5.58849774770447   -9.83758881953496   -0.44009725790067
H          -8.44552182770825  -14.32049498802454    0.15861093441384
H          -7.17388636507597  -16.10510076695574   -0.18753074450025
H          -4.91826236674991  -16.46030146928052   -0.24803486153439
H          -0.51055746989318  -15.66376149103671    2.35820133521182
H           1.64362385267474  -12.91193668414551   -1.96457445311582
H           1.96746645414558  -15.39778526504548    2.31595725108766
H          -0.78986993271578  -13.15660847378020   -1.94820607961252
