98
 SCF done       -198.668996447942          0.000746328980
C          -6.18287912741998    4.38046243862892    1.84910821706884
C          -6.04516430720044    5.03511628807113    3.04094790141172
F          -5.90485204860146    6.36607719772512    3.06529659565463
C          -6.05008435390672    4.32118466198947    4.25684535689967
F          -5.91619021438468    4.98978064473812    5.40915540847620
C          -6.19176656775751    2.96169724165400    4.26363650955526
C          -6.33753897814968    2.25847869796983    3.05197213361975
C          -6.33253554760324    2.97916981560514    1.82180543495281
C          -6.47778840184365    2.29510519028828    0.59336550044234
C          -6.62235997979571    0.93230896124779    0.59534922583383
C          -6.62992210384999    0.22173023292292    1.82865782778558
C          -6.49392884345630    0.85490438953552    3.03068411592469
C          -6.81166320593185   -1.21655838107335    1.56987635390840
O          -6.96471750287084   -2.09222632131826    2.39139883916241
C          -6.91354306861069   -1.34396843983902    0.08940993435787
C          -6.78384722279813   -0.02349792198683   -0.49514396440239
C          -6.73864918652869    0.26920260350058   -1.83290203293348
C          -6.58151076420976    1.57188337817591   -2.35198890987743
N          -6.46782000038849    2.60731306009289   -2.83356539513870
C          -6.82688556840178   -0.68650813960291   -2.86740837949498
N          -6.88358898430697   -1.41501034452335   -3.75293353535825
C          -7.28030096547525   -2.48826848093251   -0.55508515617518
C          -7.21739612109265   -3.79877487553104   -0.02239167092503
O          -8.03413693778873   -4.73785229993777   -0.54541834836265
C          -7.74988276023767   -5.92033565442005    0.04172977787502
C          -6.70156125847387   -5.76602726496859    0.93967647272108
C          -6.35606365969625   -4.40808372419368    0.90352222848557
C          -5.26501592644986   -3.81192916605571    1.55939774141917
N          -4.33030101454509   -3.35922883081379    2.04310462128493
C          -8.46361857460647   -7.11103685475698   -0.25148700291504
N          -9.50670945733578   -7.23985780241845   -1.13336967336913
C         -10.12192682106573   -6.20929639102862   -1.93856945696047
C         -11.12093439331704   -5.38427086897047   -1.13281346639742
C          -9.98909065688866   -8.55739081994559   -1.16821122504918
O         -10.93798477778168   -8.90435426507856   -1.84715922729519
C          -9.13587623766574   -9.28488587079365   -0.25521754521187
C          -8.21795850996950   -8.36406895166657    0.30488069239033
C          -7.33819632992154   -9.09491863351342    1.19521812752560
O          -6.41319347661798   -8.74033864414971    1.89414159977542
N          -7.77498993814765  -10.42855708541009    1.09363133428815
C          -7.16165815324389  -11.48526974743728    1.86314114038781
C          -8.02664697522947  -11.89843490775802    3.05038291225348
C          -8.83818822724058  -10.55889770758640    0.23614479466497
C          -9.43620283640841  -11.79159810387011   -0.12835908816203
C         -10.49654002599235  -11.79678207457376   -0.97635752008363
C         -11.11195871074710  -12.91281023155815   -1.58283799870050
O         -12.06542464252152  -12.63725066759405   -2.48666617989635
C         -12.45990005440827  -13.78765749914052   -3.07204696610270
C         -11.77943945677979  -14.85357218600936   -2.50343772047323
C         -10.90470961275581  -14.30060055130670   -1.55043802434503
C         -10.00127357905858  -14.97860328992168   -0.72088257993451
N          -9.26585149538206  -15.52563298381918   -0.03151981939222
C         -13.45507453328571  -13.75036022753734   -4.08313732126710
C         -13.97413297431855  -12.64218069196025   -4.67326259179172
C         -15.29462922607299  -12.74138591809210   -5.36524936000523
O         -15.83629306964137  -13.75171770290179   -5.74418411056277
C         -15.80764672826172  -11.35780366801030   -5.40513635323591
C         -17.03705066998960  -10.90942514692880   -5.79626162013698
C         -17.32777762853265   -9.53047644368941   -5.69797387183417
C         -16.33758957994405   -8.63988996503952   -5.18872280308954
C         -16.64149366270891   -7.26794832025500   -5.07930896907282
C         -17.86822533487007   -6.80139081449600   -5.45963133188148
C         -18.84560991622951   -7.68223766297415   -5.96596235077258
C         -18.58214150922105   -9.01804264083531   -6.08372348651629
F         -20.03955628992080   -7.19686544104035   -6.32968965872172
F         -18.15484717879808   -5.49779364439111   -5.35295462139455
C         -15.06966709806846   -9.13047368545665   -4.80242599883844
C         -14.80688991792803  -10.46900791353126   -4.91730260025612
C         -13.59827921581376  -11.23775115196106   -4.63239410988889
C         -12.33328785013353  -10.71995055630063   -4.60100731742983
C         -11.16592050223793  -11.51375544643143   -4.61689068698737
N         -10.20062501532249  -12.12946156011207   -4.69144523880502
C         -12.04177136213469   -9.33992902398561   -4.66126038366148
N         -11.75097654021282   -8.23151984742107   -4.71320892591105
H          -6.17543943439336    4.94211266518838    0.92794645026628
H          -6.19280449381692    2.42959633077932    5.20205576981125
H          -6.47587617742926    2.86901053544264   -0.31926176461367
H          -6.50110222903221    0.28984791669471    3.95012311086983
H          -7.68454283144885   -2.43444118592893   -1.55849538708062
H          -6.25373374891926   -6.54040326150541    1.53153843183297
H         -10.64149650979668   -6.72939689164209   -2.74923573502673
H          -9.34576460122356   -5.56952366649135   -2.36211330727469
H         -11.89842372163813   -6.02915560929727   -0.72996637580904
H         -11.58300849153383   -4.64244282578316   -1.77748776495636
H         -10.62949687160907   -4.87152231912675   -0.30911306946521
H          -6.20947644295031  -11.08418484795311    2.22065134571882
H          -6.96360218811269  -12.34203785503377    1.21332714643271
H          -8.19035757065799  -11.04805417412548    3.70786712790636
H          -7.52497988953615  -12.68086760259073    3.61214462311043
H          -8.99195782213733  -12.27325997019749    2.71753573038463
H          -9.00968714652442  -12.71394741174366    0.23709157624723
H         -10.90969078623479  -10.85361026265077   -1.31171438903600
H         -11.88279321930039  -15.88975759310910   -2.75430613693396
H         -13.90509579527404  -14.69879004773056   -4.34929683958331
H         -17.77918615094483  -11.59773337395817   -6.17097194807902
H         -15.90349557871944   -6.57991409602157   -4.69771352444620
H         -19.34093543288409   -9.67892546951471   -6.47245341685870
H         -14.33940949273466   -8.44076033048508   -4.41004785811448
