126
 SCF done       -244.506503677224          0.000519925148
C         -16.94725843025227   -1.33065615125573    3.35178728138987
C         -17.20943746209765   -0.88150882131591    4.61531428708109
F         -18.32013790547679   -0.17645629269223    4.86230349604703
C         -16.31680879048955   -1.15263338734252    5.67294027889922
F         -16.59977520133121   -0.69827739213263    6.89999229743938
C         -15.17420274858064   -1.86923841213659    5.45163552815368
C         -14.87470284149383   -2.34549689856524    4.16017504135002
C         -15.77682305196163   -2.07189617707296    3.09013144929208
C         -15.49820187377842   -2.53912963881941    1.78672666823302
C         -14.35359848788698   -3.25919161492281    1.56106206083594
C         -13.45886393218770   -3.53087393144773    2.63637742980481
C         -13.70034372362872   -3.08751574412747    3.90463988568301
C         -12.31633198792866   -4.31327708174672    2.13363811806641
O         -11.25816210081190   -4.52448624470157    2.67562099166204
C         -12.68893521269178   -4.67549620622194    0.72898014189784
C         -13.83082648814529   -3.86382127892979    0.34211403129474
C         -14.30725734236082   -3.67967425416711   -0.92678404410276
C         -13.70642812391649   -4.22735170766432   -2.08051119119908
N         -13.23300127135127   -4.63651818727110   -3.04292315808967
C         -15.42450315125941   -2.87697437401488   -1.24342322900542
N         -16.32512453121270   -2.23945388947210   -1.55719210401830
C         -12.08729726421240   -5.65600547059052    0.02116363959587
C         -11.11731216011693   -6.57261045594399    0.54187299383125
C         -11.13581609184549   -7.31521352569958    1.70867657726537
N         -12.11469320341920   -7.34817082284797    2.72195413255992
O         -11.92665830013007   -8.11206083526400    3.64874605789703
O         -13.10937578759943   -6.64636940912789    2.60972690423526
C         -10.01025290209678   -8.22096566854718    1.71634639311557
C          -9.33697152460489   -8.08588046556977    0.54902896333343
C          -9.97890619532970   -7.06463021955336   -0.23889528029656
C          -9.53258676787244   -6.52433065082612   -1.42731002898277
C          -9.72553128209715   -5.16989019545514   -1.83118829980427
C          -8.84198234735865   -4.87779463053872   -2.83469584687892
C          -8.11228826781598   -6.05307216179549   -3.16506648650788
N          -7.10195135134945   -6.07259444659902   -4.15520907817400
O          -7.06689228303210   -5.13086440565133   -4.92419699727692
O          -6.31377180021916   -6.99802152118023   -4.15100371369116
C          -8.56859297432350   -7.12237691645138   -2.37977312180193
C          -8.37195326234993   -8.47567785363450   -2.67664257808751
C          -9.10950362096305   -9.51781759508426   -2.15626077958685
C          -8.92406135582685  -10.84847606587122   -2.54278884055438
N          -9.54702649593601  -11.91930773854410   -1.94763059544101
C         -10.48596180962637  -11.88172165220954   -0.84827998756349
C          -9.77927840952699  -11.89495142660807    0.50249848389903
C          -9.16658479175330  -13.13965714998080   -2.52370286720557
O          -9.53751488888649  -14.22812677336826   -2.14647655516666
C          -8.27776006524975  -12.75267411960797   -3.60908592122534
C          -8.12965145273949  -11.36896287090300   -3.59496896967505
C          -7.35430516603044  -11.00132311409359   -4.77426146628733
O          -6.99675957917896   -9.93236088934322   -5.20309867866773
N          -7.10160975026390  -12.22976978333561   -5.43108934389393
C          -6.30111079456413  -12.26293990665625   -6.63320537313833
C          -4.90665768896640  -12.82456780330510   -6.37557375227174
C          -7.64950235941945  -13.28455025217563   -4.75654957102142
C          -7.80984047640391  -14.63342102737355   -5.09641163612465
C          -7.47925400598605  -15.32201264039559   -6.24037064311379
C          -7.95532919571939  -16.62362014172193   -6.46740932183285
C          -7.30335817379843  -17.66297769673757   -7.13863744681784
N          -6.13154400603264  -17.57582515294927   -7.91120019581149
O          -5.62374702149355  -16.47531359415195   -8.06801387195626
O          -5.69760635381104  -18.60631559379812   -8.39064203390538
C          -7.94570725181816  -18.89231886063790   -6.81272275501055
C          -8.99337312501375  -18.64207166510120   -5.96857749785355
C          -9.12930189366873  -17.23261269504376   -5.80427106270084
C         -10.18240589511583  -16.47233158276048   -5.31673014459770
C         -10.42318882749945  -15.10134122273691   -5.70981704022495
C         -11.25342781521555  -14.51869095237027   -4.81345441148737
C         -11.57070691762607  -15.49089237612870   -3.80429659704071
N         -12.30080565867267  -15.17549410605422   -2.64989440373054
O         -12.50552429814560  -13.99132089905238   -2.43057059900599
O         -12.67576064642751  -16.07788742632794   -1.92067519783868
C         -11.04509275666242  -16.73115433594682   -4.15516279493767
C         -11.24460138951795  -17.93007093152713   -3.41732734727210
C         -11.50626626031602  -19.14234296257311   -3.97153604566501
C         -11.75114226373916  -20.32872618074049   -3.23621241363428
C         -12.05480815504309  -21.55852353923636   -3.78468429767334
C         -12.22332903096349  -22.51440417929763   -2.74022635987786
C         -11.99916898409237  -21.77589934823243   -1.48117294666881
C         -11.71867575942549  -20.48339305153803   -1.78797492885682
C         -12.05136014529463  -22.30088840462405   -0.18395638230356
N         -12.08155650348294  -22.70498424769731    0.89047381328707
C         -12.53691519471444  -23.84482771997646   -2.86568023929441
C         -12.74077508494890  -24.80218718974481   -1.82562869281316
C         -13.05418715255706  -26.01755090184107   -2.37813361364291
C         -13.04972820420671  -25.86452213274547   -3.83007196331852
C         -12.74389775223771  -24.57839052978838   -4.13439923083899
C         -12.63435674759863  -24.06136125313619   -5.42938853023506
N         -12.54569739315265  -23.66468439672939   -6.50413946649451
C         -13.33732606869258  -27.22217379200940   -1.65358327812867
C         -13.64828212195251  -28.39631914317434   -2.20818215005373
H         -17.64041432986451   -1.11425142199564    2.55388314185964
H         -14.50252323687371   -2.06891474399880    6.27175370536747
H         -16.20184497886467   -2.32364418694176    0.99849484407834
H         -13.00945190363784   -3.30819780323315    4.70369682831079
H         -12.35172076863616   -5.81047461829326   -1.01793741702121
H          -9.78657191832749   -8.87140816373226    2.54012295291720
H          -8.41250993758918   -8.55882466705427    0.27868244987512
H         -10.35461227194223   -4.46508970967312   -1.32361490339490
H          -8.68699481793514   -3.92641239993334   -3.30822710834564
H          -7.62613683061720   -8.69371020000553   -3.43302278140220
H          -9.87787771225078   -9.31578536169286   -1.42535592160447
H         -11.11720704391191  -12.76853819822314   -0.95275542080342
H         -11.12156703149531  -10.99985094418526   -0.94867376838766
H          -9.19060712825884  -12.80283653027008    0.60618027486640
H         -10.51649804237712  -11.86810206225871    1.29920368813954
H          -9.12097555451343  -11.03515482615537    0.60502655548272
H          -6.22365445463388  -11.22472027885672   -6.96849403617865
H          -6.82266082968773  -12.84113438972821   -7.40056356148174
H          -4.37421331085172  -12.19194698017213   -5.66968689680517
H          -4.34926901744100  -12.85171872014840   -7.30698566458962
H          -4.95320419524412  -13.83372384437233   -5.97351753146736
H          -8.31806834748740  -15.18387115891539   -4.31462370539787
H          -6.77750201620021  -14.92864106559187   -6.96216619897166
H          -7.62373902551268  -19.84893262193150   -7.17932191390765
H          -9.65581843413073  -19.38628221220809   -5.57863373412645
H         -10.03878349869571  -14.65997730132670   -6.60835752689205
H         -11.64627433681907  -13.52029658149812   -4.82255140661437
H         -11.32525439746763  -17.81027558633009   -2.34443391542740
H         -11.60962479166072  -19.22520086102640   -5.04608063265671
H         -12.15374555769410  -21.77188419560803   -4.83116587225809
H         -11.51502677248460  -19.69900333354447   -1.08393204973169
H         -12.66503517811005  -24.58819265749039   -0.77766055832413
H         -13.25401587449473  -26.64581106653725   -4.53764894829048
H         -13.28463397958320  -27.13152094404049   -0.57625135518265
H         -13.70976156026754  -28.53323469829326   -3.27430383898778
H         -13.84806573156221  -29.26443932033150   -1.60467131954256
