118
 SCF done       -238.254297348598          0.000789413328
C         -13.42676819596772   -3.28703535012707   -8.78387462479001
C         -14.55354979545345   -3.98586354533142   -9.11551847425634
F         -15.39909496424791   -3.50395394504137  -10.03366962840420
C         -14.83987690978510   -5.22065208408160   -8.49780834159969
F         -15.95001938388181   -5.88452837802205   -8.84343002126607
C         -13.99536874490995   -5.73879115167151   -7.55654619464050
C         -12.82544355043124   -5.04312678089544   -7.19372687907938
C         -12.53491784515513   -3.79437477853543   -7.81748900385069
C         -11.36647984434584   -3.07935186635673   -7.46992949112256
C         -10.51592731272326   -3.59914605584232   -6.52983328009294
C         -10.80927220332172   -4.84991687856458   -5.91537614172470
C         -11.93258951579351   -5.56055060568203   -6.22962816580857
C          -9.73562289848724   -5.20493659921065   -4.96868324492616
O          -9.68093634213042   -6.18863099475964   -4.26505929659734
C          -8.71839441069174   -4.12696355396481   -5.11338921266522
C          -9.26555766037834   -3.09490529609626   -5.97855596693944
C          -8.74588642358817   -1.84203696841785   -6.14778596495176
C          -7.61828601379592   -1.36700517003577   -5.44245937534276
N          -6.74248431947387   -0.92299838122317   -4.84908460225516
C          -9.31616710294104   -0.85880555608510   -6.98399863823150
N          -9.74355861363802   -0.03267806891008   -7.65532682492451
C          -7.42948518132773   -4.23056562081411   -4.70540367797509
C          -6.91615900220628   -5.24082943137403   -3.83580311112039
C          -5.82321844104939   -6.05016408664039   -4.08498442350889
N          -5.04526803249165   -6.03384666479578   -5.25846556377439
O          -4.07034613253066   -6.75851826343695   -5.29955789599780
O          -5.39513160940803   -5.28804224547118   -6.15930697578148
C          -5.64772275230619   -6.98258468076716   -3.00334170007962
C          -6.65203194955559   -6.78988775948161   -2.11567519384324
C          -7.48482161589386   -5.70073140362730   -2.57328500304448
C          -8.52519418370166   -5.10199434281252   -1.89181269311203
C          -8.87448592709124   -3.72050334753331   -1.91912098542769
C          -9.76648583846408   -3.47225876922087   -0.91489784229947
C         -10.08950168129367   -4.70276204387505   -0.26267681406628
N         -11.03624443565020   -4.79750672200190    0.76885953539245
O         -11.57873901551601   -3.76869471419578    1.13072515742516
O         -11.26106154607941   -5.89689460441347    1.25673326486144
C          -9.37679517579306   -5.74212443549918   -0.86901686228077
C          -9.56331276254537   -7.12044077454024   -0.68229009130273
C          -9.21253434756116   -8.05809422740539   -1.62108407629142
C          -9.21065143218659   -9.46034884950381   -1.53115422468282
N          -9.59947973255588  -10.30687785642263   -0.52044770704503
C         -10.29654828020213   -9.98021171775745    0.70300987831484
C         -11.75874710528086   -9.62558816377699    0.45137634981969
C          -9.33313739970202  -11.65744562364461   -0.83530466516220
O          -9.59950547560603  -12.58822663879549   -0.10913597637454
C          -8.70436038259425  -11.60358284117297   -2.14114562013851
C          -8.65688138371172  -10.26363381602650   -2.54402245154227
C          -7.98854518107343  -10.20945954681653   -3.82744400315331
O          -7.69558579500817   -9.29341635189647   -4.55931433720443
N          -7.69355516802159  -11.56912567158067   -4.12512621593130
C          -6.98026659764864  -11.88249143607744   -5.34080254896158
C          -5.48347983826320  -12.05651510024347   -5.09337868651002
C          -8.09768601467652  -12.40457470318916   -3.11935817297745
C          -7.98978992662809  -13.81276975490552   -2.96656086307671
C          -7.40199532147721  -14.73081142561463   -3.76794210374935
C          -7.33115026423007  -16.14373757579170   -3.48973896006642
C          -6.65396096768673  -16.96728402113491   -4.39448299460160
C          -6.51558135615402  -18.32150312619719   -4.15933048619590
N          -5.84542314316307  -19.09962366845324   -5.17170730735082
O          -4.93510566214201  -18.56244720883957   -5.76473095599909
O          -6.23301232241482  -20.23077170449448   -5.37318119016238
C          -7.02979540491518  -18.92172507377149   -2.99879220753926
C          -7.75615298725184  -18.10064417629251   -2.12987300514018
C          -7.89734651359740  -16.75156397736388   -2.35871758531076
C          -6.82531124287312  -20.31123179807968   -2.64212899915409
C          -5.70755190604175  -21.05585168575128   -2.73132659627416
C          -5.81428280090774  -22.54502432467659   -2.58707759698623
O          -6.72041436586255  -23.14808858099980   -2.07028503542202
C          -4.61530804520385  -23.07385666867384   -3.25933638593955
C          -4.30330837345305  -24.36940302396930   -3.55986447280979
C          -3.10583217445688  -24.64293025701625   -4.25674180054217
C          -2.25508544079608  -23.56423516508055   -4.64035716817943
C          -1.06799502669007  -23.84490734421440   -5.34713807081925
C          -0.73882405740965  -25.13487639785398   -5.65514263627237
C          -1.57946057086544  -26.20114863033237   -5.27299234166337
C          -2.73798560518454  -25.96170834969331   -4.58861283675490
F          -1.23142353231131  -27.45398376125819   -5.58855478399624
F           0.38871421705863  -25.40073655977644   -6.32396384663966
C          -2.59979046376414  -22.23427214960653   -4.31230823927056
C          -3.75884422130354  -21.99404605302027   -3.62226566275039
C          -4.34512890714626  -20.74820317403282   -3.14611487559723
C          -3.67683656981575  -19.57205135697923   -2.95514705304128
C          -4.23158276789440  -18.44406587927708   -2.31535921191126
N          -4.63310667884057  -17.51316899971071   -1.77762773954329
C          -2.32022167666061  -19.37796871712868   -3.30055683812802
N          -1.22213039857892  -19.17345451549461   -3.55831775007752
H         -13.22320999052710   -2.34334145527389   -9.26535255441505
H         -14.22863513661150   -6.68479230949689   -7.09355670624802
H         -11.16658177201812   -2.14169969303979   -7.96332030674999
H         -12.13407182346448   -6.50714610825701   -5.75159343007388
H          -6.68930363006812   -3.55687905637651   -5.12431825625525
H          -4.84660042869935   -7.69444270313287   -2.95681437505829
H          -6.77082618701055   -7.27840450383515   -1.16821876980230
H          -8.40239083005585   -2.98440681969895   -2.54142518391243
H         -10.18116148834570   -2.52298835624853   -0.63118225972414
H         -10.07593152486686   -7.39644010683574    0.22820787738890
H          -8.88836452984894   -7.70477650976463   -2.59207244383435
H          -9.77600609771993   -9.17039157182428    1.21929048786652
H         -10.24005198016861  -10.87927426467276    1.32377684497997
H         -11.85056407039061   -8.79444822820905   -0.24311896794964
H         -12.22989359932549   -9.34249377391093    1.38771624478695
H         -12.28510324374256  -10.48304635122928    0.03890104991114
H          -7.13518279180670  -11.02818252033230   -6.00665385360978
H          -7.42219994552615  -12.76741677203789   -5.80428754174900
H          -5.05666153219481  -11.11768588584259   -4.75012612962653
H          -4.98888885802293  -12.33929763227703   -6.01827043808058
H          -5.28987436794664  -12.81878584229606   -4.34191552769982
H          -8.45152798461523  -14.13992164646092   -2.04420798837733
H          -6.91502248748861  -14.43320677208422   -4.68337908146862
H          -6.22581058071727  -16.55772944232873   -5.29839020995906
H          -8.17437645953355  -18.53885817361796   -1.23681142281237
H          -8.44702017139889  -16.15975268171301   -1.64497029639748
H          -7.69576737877659  -20.82576465127174   -2.24681680803195
H          -4.96360481697878  -25.17358280250494   -3.27353066633305
H          -0.41280758245676  -23.04110999541716   -5.64462588779246
H          -3.37041832047763  -26.78827158885460   -4.30495932081028
H          -1.94963444351193  -21.43432222822717   -4.62876981549372
