110
 SCF done       -220.578545435275          0.000674736981
C          -9.87388578283586   -0.15921852115932   -0.70470043982498
C          -8.93872021418657    0.14361753659392   -1.65421004093586
F          -8.70281516845706    1.41901445006900   -1.98488310229847
C          -8.21191703236157   -0.87930929279774   -2.29657909379446
F          -7.30141032900339   -0.55414074048172   -3.22363582707148
C          -8.43125845459786   -2.19083727742332   -1.98112237828468
C          -9.38944250148742   -2.53556763120388   -1.00791678574297
C         -10.12295402959213   -1.50182383458086   -0.35584796468497
C         -11.08560564330038   -1.82377942583068    0.62753759649734
C         -11.30675870988802   -3.13745793658255    0.94608842942395
C         -10.57945612458331   -4.16609283981517    0.28222184852447
C          -9.64181573671745   -3.88363219959972   -0.66984687654141
C         -11.02281653280157   -5.48405607308921    0.77479906169949
O         -10.63619259316627   -6.56945220756950    0.39247338083520
C         -12.10064748408124   -5.19418204568284    1.75314295075378
C         -12.20477484630773   -3.75640249579700    1.91234722256237
C         -12.92615921692462   -3.11254395475640    2.88023552466137
C         -12.98514170455883   -1.71002003404335    3.01835371273083
N         -13.06724517210329   -0.57501694163291    3.16565233590993
C         -13.63609819722662   -3.78257503258348    3.90044862374632
N         -14.17385506609572   -4.28149291285296    4.78292415215214
C         -12.97483114058194   -6.12579875998631    2.22064863079164
C         -12.78121513345835   -7.53276517232631    2.13758241427212
C         -13.70762218642819   -8.47415577924365    1.69861721206165
N         -14.99915288314834   -8.18929695217830    1.22720762104396
O         -15.72372589435300   -9.13022254719573    0.95704286143122
O         -15.32073392386055   -7.01549392011030    1.11679169495361
C         -13.11625880919547   -9.77653813050564    1.71812523777675
C         -11.82814374155272   -9.64863011994421    2.13693522386521
C         -11.56219094994687   -8.26343771664046    2.42443974897962
C         -10.43204677158435   -7.75301844915866    3.05143054480130
C         -10.37095793560501   -6.69184259235914    3.97964084850737
C          -9.12506191778334   -6.68123797449619    4.56641878516417
C          -8.32416238022018   -7.69361799409918    3.98423467012470
N          -6.99800739717032   -7.94065695585070    4.34309548573453
O          -6.41724060153258   -8.89099248252453    3.82620256725757
O          -6.48528280587112   -7.20630784156128    5.17166232288377
C          -9.08084965394431   -8.34775122291446    2.98731149908819
C          -8.61218729893918   -9.23335115360709    2.03159180481390
C          -9.26373685628645   -9.53734630623320    0.84292658042185
C          -8.95451727909307  -10.57398601575014   -0.02379112517286
S          -9.71219026112281  -10.57581803495947   -1.59736567296726
C          -8.97283170897529  -12.06419827020800   -2.06338990367894
C          -8.10485765755567  -12.53528882827064   -1.04993015566074
C          -8.12323040858873  -11.72290567773475    0.12067926220288
C          -7.38128061988675  -12.11481946306987    1.23985242092942
C          -6.55744541269860  -13.22047001650033    1.18108821389366
C          -5.75534568742879  -13.63905349216041    2.36806809712930
C          -6.46792703161054  -13.95236859695200   -0.01664354376932
C          -7.22541316610499  -13.62980538862991   -1.11107794142081
C          -9.31864538285696  -12.63756931612689   -3.30879186197836
C          -9.25661078634864  -13.96346351491534   -3.60418249535015
C          -9.57934509647748  -14.53427811331510   -4.86162994382747
S          -9.64118322905883  -16.27316684116795   -5.00907172073584
C          -9.98501198500995  -16.18394240256981   -6.70310688084627
C         -10.07845238648149  -14.84972423025405   -7.11043361099111
C          -9.85128291620240  -13.93152814288955   -6.07323133018354
C         -10.48673120603586  -14.44906214102969   -8.39758499330739
N         -10.85824414549541  -14.09914138240559   -9.42454125166969
C         -10.17542718523565  -17.37430997742337   -7.46533565693506
C          -9.86277173669858  -17.53124151990389   -8.77637056991248
C          -9.06973359721568  -16.59536720532709   -9.49380235644646
C          -8.93294727918337  -16.36055247023079  -10.82377352387710
C          -8.23321197368628  -15.09089431375183  -11.19942062560030
O          -7.50715891398646  -14.44187916319594  -10.48441562660424
C          -8.66418304410932  -14.80042166546884  -12.57542559685923
C          -8.41306483469420  -13.69521866368391  -13.33702826607714
C          -8.96750232233684  -13.61468268255792  -14.63329135377472
C          -9.78538507202738  -14.68027441366308  -15.11033541518488
C         -10.34242901780565  -14.59144567057633  -16.40210847916592
C         -10.09558329985208  -13.49871758580311  -17.18476546809049
C          -9.28500330645153  -12.44605681479915  -16.71252835948229
C          -8.73263380686568  -12.50130431023274  -15.46367965218931
F          -9.06034293951337  -11.38788292919892  -17.50154752907181
F         -10.62264854886756  -13.41699602214080  -18.41235225857143
C         -10.02677336002040  -15.81204894171478  -14.29901590245964
C          -9.46392006464431  -15.87807424215708  -13.05186635941191
C          -9.50767951263417  -16.92358419399196  -12.02996531477645
C          -9.85272461970773  -18.22580010482714  -12.27059267803721
C          -9.67049786602225  -19.29166652567865  -11.36755915425165
N          -9.51582400209902  -20.20467745970603  -10.68887876597840
C         -10.34628292042998  -18.69408913136951  -13.50862587709980
N         -10.75944046359387  -19.13614632310660  -14.48345170785249
H         -10.42031361692078    0.63539750198210   -0.22116183770633
H          -7.86667795784709   -2.96117337856872   -2.48262642341605
H         -11.63083661380358   -1.02307589857746    1.10094560942014
H          -9.09938062235643   -4.67831040822534   -1.15931869833834
H         -13.92621566411357   -5.80091968337377    2.62739586101730
H         -13.63623271957813  -10.67313108291786    1.44088115683760
H         -11.14139986973039  -10.44857320356797    2.33665361871627
H         -11.20416574172800   -6.08077352135657    4.27077798417832
H          -8.78866709490305   -6.02990885722953    5.35177118925946
H          -7.61770025354510   -9.62274777294193    2.20327397162538
H         -10.04771235553864   -8.86077988978971    0.52305886337103
H          -7.44353411543378  -11.56170836111118    2.16117966449601
H          -6.20004065218969  -14.52490957084147    2.82253046841804
H          -5.71936034076065  -12.85047313596543    3.11452166270014
H          -4.73991761472039  -13.89515544972865    2.07273215406616
H          -5.78596449955720  -14.78800429170067   -0.06629438622225
H          -7.11907777792005  -14.18936018017826   -2.02577983190766
H          -9.73286041120750  -11.95640555795761   -4.04006612188501
H          -8.99106488476745  -14.66822975522095   -2.82973624021654
H          -9.88167666420848  -12.86733601708901   -6.22125886189981
H         -10.61215463538390  -18.20797742888872   -6.93106698859754
H         -10.18568411365603  -18.43652991073516   -9.26471291151687
H          -8.49178138295643  -15.90516940419401   -8.88349948726332
H          -7.80117129340217  -12.89303776153117  -12.95389251301095
H         -10.96219953522940  -15.38937510360580  -16.78030941469606
H          -8.11521197773829  -11.68751943938848  -15.11700237086389
H         -10.66057271607792  -16.59498875446847  -14.68317326512640
