115
 SCF done       -234.767790429254          0.000339152162
C         -13.68028627119315    0.51062001947451   -8.05347344333981
C         -14.95549816935553    0.85690386519843   -8.40110274320544
F         -15.16867216224016    1.75966907763090   -9.36688615652382
C         -16.06110362167251    0.27141534514377   -7.75062398428674
F         -17.29932152492249    0.63010216920964   -8.11361026332553
C         -15.87516693673187   -0.65064742554379   -6.75928841850642
C         -14.57292970347367   -1.02711119380040   -6.37608113923752
C         -13.45399796971454   -0.43837374983296   -7.03547083369470
C         -12.13892281496816   -0.80448136920443   -6.67197308161232
C         -11.94903529423316   -1.73109510865486   -5.67942358882164
C         -13.07293302986377   -2.31133514232931   -5.02379010372560
C         -14.35407277169371   -1.97456697708036   -5.35204919442085
C         -12.60276870583332   -3.26102799755397   -4.00039706873030
O         -13.22949669595026   -3.74503711740502   -3.08848412543107
C         -11.12873852737017   -3.38258124758219   -4.24010381097525
C         -10.72728043406124   -2.29845674302881   -5.12081185213219
C          -9.44907450389371   -1.87416553099236   -5.35784514220298
C          -8.31522977828084   -2.40791353324946   -4.70841323709021
N          -7.37418843336125   -2.79756526003503   -4.17919952409467
C          -9.11565236336586   -0.81708638362834   -6.23147527487821
N          -8.79031436281221    0.03317529539419   -6.92962952238169
C         -10.38244529537098   -4.40897702359263   -3.77841749268807
C         -10.92328958556741   -5.55738077788648   -3.11152304727942
C         -11.99510092591140   -6.35346892910853   -3.46978989088481
N         -12.83316212411045   -6.25823894781927   -4.59834610704018
O         -12.69103584659070   -5.32171036507773   -5.37174446462022
O         -13.64945154159146   -7.14482758778351   -4.75840883791568
C         -12.09427885787856   -7.46797433373105   -2.55450738235212
C         -11.06525418221423   -7.40211074042692   -1.68323550787478
C         -10.26691137946130   -6.23517073071278   -1.99070124950558
C          -9.14946982229074   -5.78522378101231   -1.32168888802884
C          -8.72988425309313   -4.42699148915216   -1.18030132064076
C          -7.79208874596301   -4.35668183365018   -0.19264412377320
C          -7.50698846072705   -5.67964204052321    0.27621210331054
N          -6.53163892361137   -5.95935436586647    1.24946056868622
O          -6.31950867302724   -7.12832997233740    1.53954777808513
O          -5.96099794986703   -5.01441624167830    1.76085596410272
C          -8.28224464811283   -6.59447750327667   -0.43485697941030
C          -8.15715696953698   -7.99534450551150   -0.44507172498302
C          -8.53782437435013   -8.75448827954083   -1.51969088674083
C          -8.61260832407607  -10.15020738495511   -1.67795732426670
N          -8.29439490033032  -11.18818876911017   -0.84244424641042
C          -7.71016269656482  -11.12622589177494    0.47832365080301
C          -8.75804533919221  -10.82444157235088    1.54638880176195
C          -8.64088187099073  -12.44130870535870   -1.40582866693319
O          -8.43502427491411  -13.49995350567777   -0.86273897916816
C          -9.23117338290574  -12.10533387585259   -2.69059164957349
C          -9.17073374111712  -10.71258484425133   -2.83626754493604
C          -9.77518658272950  -10.36196878499016   -4.10206881310874
O          -9.98262538890692   -9.29394974853739   -4.63359360945971
N         -10.14247790745829  -11.60860218846714   -4.66650891736973
C         -10.82620157732635  -11.63608411247195   -5.93899488676484
C          -9.84577575393437  -11.71537573325946   -7.10742819552286
C          -9.83377416446753  -12.64999954153703   -3.83170570684278
C         -10.11111160891497  -14.03571971378526   -3.99215210825131
C         -10.36275752944511  -14.70115205255510   -5.14153907032029
C         -10.71711713647163  -16.08706613186860   -5.23306408769770
C         -11.19611315670170  -16.90790512384218   -4.21992284632748
C         -11.43364141595371  -16.59339677586037   -2.88014992136301
N         -11.66598450595581  -16.37008003587148   -1.77836534708333
S         -11.61400528226315  -18.49316587723382   -4.78428276002051
C         -11.14326951652973  -18.08676115136667   -6.40578399221006
C         -10.67016744346554  -16.79058904190981   -6.47395185437212
C         -10.22334317524074  -16.19573733313056   -7.66762852803515
N          -9.84277864711420  -15.68795584151501   -8.62194843146119
C         -11.21963998686065  -19.02782301243989   -7.48162490307262
C         -12.17242058734032  -19.96019911911545   -7.69470291964992
C         -11.90068505093421  -21.10436406143686   -8.62606184319663
O         -10.99198154350811  -21.18347136619359   -9.41310668662368
C         -12.93524436279208  -22.10470662538937   -8.30796215501024
C         -13.06809834445323  -23.37826426122609   -8.78461497742021
C         -14.14168462432115  -24.17405382381416   -8.32781917861202
C         -15.05621000553815  -23.63718532499208   -7.37374910738020
C         -16.12296051839012  -24.43862834473150   -6.91915189294734
C         -16.27767267876178  -25.71147326678378   -7.39232704843964
C         -15.37353725744956  -26.24122386979295   -8.33718490229719
C         -14.32763762448172  -25.48982938858031   -8.79551273128883
F         -15.54954062403499  -27.48988830701542   -8.78092550270509
F         -17.29079847393382  -26.46991121266064   -6.96293474600227
C         -14.89614526494146  -22.31611844435878   -6.89954904572428
C         -13.85575562743752  -21.55705899456634   -7.36712893939100
C         -13.48261319420218  -20.17334611015916   -7.09976296306305
C         -14.31898600819238  -19.20217821767009   -6.62276512822290
C         -14.00032442405429  -17.82776667633674   -6.62138526048613
N         -13.78073779367320  -16.70145602237982   -6.63713580294449
C         -15.62821620296009  -19.45626037006371   -6.15806577373720
N         -16.69174677193189  -19.61732936649726   -5.76107606622102
H         -12.84596868461255    0.96830922326109   -8.56172789366682
H         -16.73112674987484   -1.09002633607823   -6.27153541222453
H         -11.31223676906063   -0.34967843938966   -7.19420423957753
H         -15.18876164204887   -2.43220334678467   -4.84376260481434
H          -9.30995991699745   -4.41624676143108   -3.92829301986661
H         -12.87905795621606   -8.19782536739977   -2.60118693328923
H         -10.90033160584898   -8.04100193381273   -0.83835935347098
H          -9.18285154368695   -3.59297161095812   -1.67929099435991
H          -7.31760272024641   -3.47464626572053    0.19449649062957
H          -7.66947355488126   -8.43139130276203    0.41463146846669
H          -8.85950035213422   -8.23557318790633   -2.41430851547040
H          -6.90588414567325  -10.38791513262330    0.48841999863279
H          -7.28056233463128  -12.11477719496684    0.66423945158186
H          -9.27472544202655   -9.88983133331279    1.34045410732076
H          -8.27617385092126  -10.74788199298564    2.51649624929124
H          -9.49186691781076  -11.62584880451198    1.58342044256228
H         -11.38264313335751  -10.69641366736255   -6.00913236521178
H         -11.53595430614912  -12.46562314411647   -5.94841743636310
H          -9.23256131084176  -10.81820816435551   -7.13230355216114
H         -10.39479145159184  -11.78693152576744   -8.04176795157348
H          -9.18688315793230  -12.57718989364155   -7.02346759272315
H         -10.06643247069077  -14.58326760750209   -3.05885749232259
H         -10.27104776109975  -14.21131156660788   -6.09962570521402
H         -10.39086485283241  -19.02010724841226   -8.18470388679307
H         -12.36475912220880  -23.77094879204112   -9.50294649788705
H         -16.82578057242305  -24.04768106372376   -6.20008797631482
H         -13.64559821264617  -25.90981952458803   -9.51806036667332
H         -15.59500053371499  -21.93750963376150   -6.17069180915330
