111
 SCF done       -232.976460052293          0.000760135251
C           0.03547189585148    2.83976068493087   -3.18559051622304
C           1.05515385487051    3.37994739141896   -2.45258394341345
F           1.71105831459495    4.45500417715985   -2.90316002778212
C           1.42936075478892    2.81381310896221   -1.21639810219750
F           2.43136974918279    3.36396766698603   -0.52124244787579
C           0.77856571984288    1.71407197962697   -0.73093775104621
C          -0.27466831109962    1.13373489787899   -1.46403290583777
C          -0.65534531619440    1.70580489688920   -2.71325190998943
C          -1.71004771481845    1.14095156793564   -3.46694184663213
C          -2.36240826453500    0.03476162392405   -2.98876459707875
C          -1.96898268591933   -0.53261256587755   -1.74319478851074
C          -0.95845970327892   -0.00708056721755   -0.98989614652740
C          -2.80014984597744   -1.71195734369119   -1.46651519631939
O          -2.73724294960632   -2.43958239379392   -0.49383401190967
C          -3.70476483692919   -1.85668678545627   -2.61882404844162
C          -3.46396407911506   -0.75452869897974   -3.53523758482053
C          -4.15233720496216   -0.47131314549267   -4.68421178392421
C          -3.86696401186456    0.62907391180421   -5.52228374757273
N          -3.68178709005471    1.50275671975070   -6.24236681681075
C          -5.24467334623553   -1.21074744462017   -5.18807389832893
N          -6.14087707256759   -1.75706794218813   -5.65286885621048
C          -4.56075656281329   -2.90547130063097   -2.80717637368083
C          -4.83065815837431   -3.99817403352570   -1.96159840201951
S          -4.25559507668394   -4.27711769403575   -0.33941749245107
C          -5.10912527852942   -5.79424311783916   -0.24434774339169
C          -5.82961410075066   -6.04477351763740   -1.41353652933391
C          -5.69725725640039   -5.02854338216197   -2.35771790266466
S          -6.59114700860773   -5.18620682735292   -3.83865647082912
C          -7.37510062933041   -6.73207058173513   -3.41416265257318
O          -8.12797096851078   -7.30074233398804   -4.13504137640025
S          -6.91553701121455   -7.35030688472508   -1.80448230655651
C          -5.04109156714428   -6.66201480589265    0.87794940431825
C          -5.12980088095307   -6.35083034363289    2.21988926200634
N          -5.16958155726347   -5.07434287093330    2.80343426930543
O          -5.63585280837145   -4.98221851921975    3.92187418740082
O          -4.73622440009180   -4.13201520778538    2.15516930626846
C          -5.34623287962705   -7.56006753345255    2.98297175954082
C          -5.33723428967397   -8.61751734034341    2.14177142850575
C          -5.03178976289260   -8.14568737173152    0.81393200195270
C          -4.51995309188331   -8.87382686683386   -0.22683483942570
C          -3.88202460600283   -8.34820299701896   -1.41917109703290
C          -3.57798000059586   -9.36207220307442   -2.25125306821657
C          -4.00197448340643  -10.59711640534927   -1.61834109697130
N          -3.70068985584361  -11.87384962127919   -2.11349536999628
O          -3.10916607302467  -11.95299731234200   -3.17618240328626
O          -3.98646507520136  -12.83991292507586   -1.41739652495608
C          -4.54395411861713  -10.33754684681447   -0.38225224551195
C          -5.11614517431074  -11.34666400845944    0.48466991329376
C          -4.59634082562589  -11.72656330043512    1.65705171066731
C          -5.17605373247153  -12.76073398917021    2.50203884439648
C          -6.54411516400479  -12.68138429769357    2.79347597118778
C          -7.08889154423795  -13.57197068854512    3.68796874243629
C          -6.29277673183648  -14.53693881045722    4.31571974778797
C          -7.15883983599517  -15.32041164832502    5.23310834875324
O          -6.87205536573108  -16.23525875029195    5.96044469400741
N          -8.42503574432027  -14.77008611596387    5.09880423531965
C          -8.47707127963318  -13.72130503464517    4.19327770220308
O          -9.46262982528821  -13.08791588758543    3.91657020555723
C          -9.58756509010479  -15.27782983390950    5.79700632463257
C         -10.28510743517433  -16.36352187413980    4.98606214663737
C          -4.95461934922367  -14.64372689892781    4.03178549878434
C          -4.38016891630666  -13.77218422300389    3.08688073128576
C          -3.01329111795226  -14.04001841751356    2.71157751261501
C          -2.39746689397893  -13.70420305203733    1.55491499138616
C          -1.10499920862912  -14.20453325942484    1.23556280331818
C          -0.36981720517528  -13.92939390959859    0.12743914014856
C           0.70051997475430  -14.87549571934081   -0.31781560490279
O           1.22146746445044  -15.73593240112941    0.34871776427756
C           0.91707708829987  -14.56142752197517   -1.74500265850545
C           1.66300282514194  -15.22688740991646   -2.67485713020076
C           1.66078353654137  -14.76686696209616   -4.01168968232917
C           0.86426547473374  -13.63857157818890   -4.36729612701133
C           0.84466625631095  -13.20729360779569   -5.70864829587393
C           1.59076082811923  -13.85668843979149   -6.65163342317898
C           2.38628285290116  -14.96546433264644   -6.29775741136113
C           2.41986033321151  -15.41323004332716   -5.00669570940878
F           3.11018818885889  -15.58053450534078   -7.24163240739047
F           1.57564756805068  -13.44382905458769   -7.92503296094157
C           0.11137634374464  -12.95996628099819   -3.38247346409335
C           0.15784593353993  -13.40627484852911   -2.08967060231565
C          -0.48759507110875  -12.90396802082107   -0.88471736801296
C          -0.87103441342385  -11.60431700445907   -0.68936753850737
C          -1.33509397503869  -11.08434854088247    0.53146704583088
N          -1.71512086292476  -10.58941833051869    1.49621957441737
C          -0.72775465036743  -10.59947957891882   -1.66922016563130
N          -0.62393305263095   -9.72928076989676   -2.40983183979669
H          -0.23785475397958    3.28656210452351   -4.12875025408741
H           1.07631574041103    1.29216249863175    0.21615774057450
H          -1.97051216320624    1.59783384322303   -4.40775783661157
H          -0.68549298551799   -0.45828027549958   -0.04822471799733
H          -5.10901848361111   -2.94497944609245   -3.74173476570891
H          -5.48923595562293   -7.56150459766483    4.04685167846942
H          -5.44576328093808   -9.64695644763005    2.41263608386411
H          -3.63403068961436   -7.31751581969557   -1.56907908843373
H          -3.08394840857639   -9.31848361373666   -3.20208594271188
H          -5.94477596194746  -11.90343707770188    0.06075036282674
H          -3.67805899926158  -11.27054825155590    2.01243928366208
H          -7.15507473456292  -11.91534789013536    2.34019096383447
H         -10.26225999133391  -14.43564108546439    5.96645149939891
H          -9.24360652779378  -15.67848225732169    6.75322607331776
H         -10.62225192837557  -15.96252199606478    4.03312590129426
H         -11.14650862459371  -16.73430154183801    5.53362712670944
H          -9.60423841326286  -17.19146456713303    4.80219737742320
H          -4.35548351854104  -15.40549346057238    4.50693540329802
H          -2.46251252275119  -14.65358030251747    3.41515211409486
H          -2.92219567821400  -13.14655570326631    0.79377788099784
H          -0.70291877542435  -14.98169479234051    1.87783996434181
H           2.24134641168289  -16.09545527586170   -2.39910505502922
H           0.24081218086874  -12.36006597066322   -5.99315894628957
H           3.03093587243453  -16.26560559821987   -4.75416785218092
H          -0.51114036492337  -12.12923641877541   -3.67550305169376
