113
 SCF done       -236.425975289864          0.000959656733
C          -9.21035175326708   -0.20028229741255   -2.79096060155108
C          -8.57397260426033   -0.17519281393212   -4.00024033448478
F          -8.32147135633872    0.99190546918166   -4.60414165249006
C          -8.17570648171489   -1.37414193674218   -4.62629234606067
F          -7.55461249706005   -1.31947999665171   -5.81107564429497
C          -8.41866701978581   -2.58147619244634   -4.03362364766036
C          -9.07213683194771   -2.64061739094037   -2.78711896943111
C          -9.47535361175276   -1.42892527298562   -2.15332801430409
C         -10.13147520211426   -1.46395914012965   -0.90210933145808
C         -10.37453793483452   -2.67249000924025   -0.30458020098929
C          -9.97403328098110   -3.87967868030207   -0.94587282427820
C          -9.33885094015009   -3.87533548427636   -2.15527844797154
C         -10.36996785479134   -5.03444574812180   -0.11995888384789
O         -10.21032604449441   -6.20845106587900   -0.38223267800855
C         -11.08289435115778   -4.45526162523818    1.04785876274058
C         -11.00476210775474   -3.00877320847638    0.96528208457767
C         -11.35579744438108   -2.13526792314240    1.95747102232279
C         -11.79712374162379   -2.54500404971594    3.23468631132091
N         -12.10024122007491   -2.83321554874691    4.30319651070625
C         -11.25037538363961   -0.73262390619622    1.84873115280264
N         -11.18897750749878    0.41223104682162    1.80386166709692
C         -11.85454785976657   -5.18606758318589    1.89456955132871
C         -11.81230931286329   -6.60740158984310    1.98579037795838
C         -12.89227397196631   -7.47610199752363    1.93424589701360
N         -14.23689249384984   -7.09409810675773    1.78174881964468
O         -14.47235115771667   -5.90993985310984    1.59625980185966
O         -15.08363744177459   -7.96495780825168    1.84952450622089
C         -12.42448966898560   -8.83084895451607    1.98021455325850
C         -11.06662030255330   -8.80769183884153    2.02880924103225
C         -10.62015151951276   -7.43850988510922    2.05539108269016
C          -9.33861267787501   -6.98655203294164    2.32610775515143
C          -8.98657700808530   -5.82163903330832    3.05205146779880
C          -7.64863499049403   -5.87233368907245    3.35473163469402
C          -7.08068615560041   -7.03646503148731    2.77167875194923
N          -5.72717447690867   -7.36975612465739    2.87524704722669
O          -5.34619714316787   -8.43582712998858    2.40223912898852
O          -4.99188539995550   -6.58507658762143    3.45072619537014
C          -8.08700283905952   -7.72826085574426    2.06949881852795
C          -7.90251899281771   -8.77524270421601    1.17451879306466
C          -8.80392263122282   -9.15059478049704    0.19314468428600
C          -8.70721262728103  -10.26764927320077   -0.62953038021505
S          -9.75018650030522  -10.34018406955818   -2.02274544284356
C          -9.12534395867239  -11.86606344807341   -2.53902741587155
C          -8.09058342571471  -12.30411092004346   -1.67598181391130
C          -7.88348299023297  -11.42909803983381   -0.56972118475805
C          -6.95925051653094  -11.77860397014944    0.42119967386924
C          -6.17636969068397  -12.90595914339702    0.28179633839831
C          -5.18065967965233  -13.28163618398773    1.32835771164388
C          -6.31471084063973  -13.70234762927408   -0.86883165758697
C          -7.25223625474690  -13.42120233684021   -1.82738281114162
C          -9.70467480266945  -12.46067740790574   -3.67976349690583
C          -9.65859531239118  -13.78289040681683   -4.00725249761035
C         -10.21248805311518  -14.37296907726937   -5.16792411863771
S         -10.23365927347346  -16.10399169913081   -5.28366932270055
C         -10.99752791580641  -16.08154951039593   -6.84336131932164
C         -11.18675540571537  -14.77220803175212   -7.26413347037139
C         -10.75915142991499  -13.80644450938061   -6.32523383358533
C         -10.85653489515486  -12.41646413828398   -6.52678425562014
N         -10.94131555218728  -11.28193889106696   -6.67023213545048
C         -11.70420068818256  -14.40135935375040   -8.61993715952471
F         -11.20502381241715  -15.20122443854689   -9.58307668914060
F         -13.04492785704832  -14.49533174299076   -8.71579782724917
F         -11.38741994967186  -13.15740605066548   -8.98130787675462
C         -11.32842812913954  -17.34112230838184   -7.42019291980497
C         -12.28140722257757  -17.58401726615599   -8.35003505599224
C         -12.56535729047746  -18.89320483832696   -8.81866119486418
C         -13.66669949731616  -19.27240747850385   -9.51767010595730
C         -13.66896190835600  -20.55558507346343  -10.27956295291069
O         -12.88482688681690  -21.46594305441553  -10.15953232615451
C         -14.78796499348504  -20.43031437942760  -11.23304117898243
C         -15.14917818965580  -21.27657642816944  -12.24196911550490
C         -16.25364872108578  -20.94255346515281  -13.05651139755669
C         -16.96176368473556  -19.72950781558156  -12.81182589016652
C         -18.05989119633841  -19.40039593889474  -13.63186450772814
C         -18.43825246359511  -20.23656556058269  -14.64465372267229
C         -17.73707079206369  -21.43610783268563  -14.88538389012859
C         -16.66751093332987  -21.78294591918685  -14.10844391812484
F         -18.12918807805256  -22.23458432934505  -15.88544222333245
F         -19.48203670150916  -19.92392091747761  -15.42104798106443
C         -16.56765275064783  -18.87435105812152  -11.75734227580317
C         -15.49958590486447  -19.22259585873926  -10.97378773161643
C         -14.89968670139253  -18.56953807823280   -9.81275984131576
C         -15.50339632802742  -17.62608820644611   -9.02486731460331
C         -15.02377734197657  -17.23279729107905   -7.75637107565002
N         -14.69834172881304  -16.92996374598244   -6.69830053644167
C         -16.74462487972498  -17.02992693519878   -9.33711843123130
N         -17.74268074213022  -16.51139961695150   -9.56238390818977
H          -9.50767462738595    0.72619688726555   -2.32505981815232
H          -8.10845096103382   -3.48939486638663   -4.52667026202110
H         -10.43331432588384   -0.53331846905681   -0.44891487434808
H          -9.04458753126498   -4.80186485738946   -2.62453016170715
H         -12.60875809053437   -4.68957873506538    2.49495711929018
H         -13.07268142140734   -9.68584532911960    1.97256403637354
H         -10.41860144665134   -9.65489528837947    2.14491716089621
H          -9.68431580310143   -5.09224448690885    3.41728812150738
H          -7.09226930351883   -5.16794494233040    3.94478424332428
H          -6.92437917829164   -9.23549742610102    1.19725163860050
H          -9.62138699602653   -8.47224124349409   -0.02053875607316
H          -6.85009862891530  -11.17634081427458    1.30667577298722
H          -5.53225427161657  -14.15358183220085    1.88040561878121
H          -5.02413415809387  -12.46770166708330    2.03056407671581
H          -4.22807162956781  -13.54328684857986    0.87201781334913
H          -5.66632749255333  -14.55712701308875   -0.99081462090101
H          -7.31864973446491  -14.03574678394796   -2.70945261564646
H         -10.28335357538968  -11.79233246853205   -4.30186317437236
H          -9.21522104693195  -14.48630375028722   -3.31731631250405
H         -10.81756775922737  -18.18723732743487   -6.97688383387582
H         -12.87075274827823  -16.78098012451939   -8.76065686667584
H         -11.81289463087208  -19.65941639336773   -8.66669656162604
H         -14.59928162667206  -22.18895491461051  -12.41564619060991
H         -18.60965220305384  -18.48821246510287  -13.46008462886285
H         -16.14132864444094  -22.70387043100197  -14.30523669563088
H         -17.11472645307760  -17.95828337915149  -11.60127179172604
