117
 SCF done       -237.886732587919          0.000486063867
C         -11.05422412947346    1.24521950654005    3.95074552775674
C         -11.86443832275204    1.17342014110922    5.04893287784064
F         -12.61866297258698    2.22231929288426    5.39891531353386
C         -11.91834431671344   -0.00224298688746    5.82555609989182
F         -12.72209596598916   -0.04425540394577    6.89556366977596
C         -11.16009219536651   -1.08966621295827    5.49311996212245
C         -10.31500205965427   -1.04680966050676    4.36708963533503
C         -10.26150538839305    0.14021863971226    3.57944560937600
C          -9.42641493791160    0.20373229178280    2.44115691740347
C          -8.67268479541317   -0.88839872981904    2.09686566437121
C          -8.72578502608586   -2.06606488230292    2.89404255480989
C          -9.51738217691720   -2.15398434452135    4.00308338241109
C          -7.80944953470930   -3.08157476519094    2.34187845156454
O          -7.50791708747110   -4.13579601413829    2.85097158414479
C          -7.22645017676123   -2.46321603421236    1.11493038145555
C          -7.75886674457060   -1.11830387354982    0.98317489441806
C          -7.52529154530066   -0.25608063254479   -0.05433897805235
C          -8.09414869213978    1.03198976522782   -0.15397577249394
N          -8.52323290065947    2.08807517942464   -0.28452210261895
C          -6.71959826859118   -0.54394388134688   -1.17763078194120
N          -6.10789509681401   -0.71858640310734   -2.13293993850149
C          -6.24164702842117   -3.02507301190963    0.36711548451288
C          -5.89320700004591   -4.41151733456653    0.36815503261168
C          -4.55023579545118   -4.80576064908727    0.16720629376989
C          -4.14018884052789   -6.18758246046355    0.18394070765126
N          -2.83156427485359   -6.49180867601297    0.15123621155017
C          -1.95127419693581   -5.52566280105256    0.04823022584596
C          -2.36758400483222   -4.15785888039705   -0.06086428438289
N          -3.63279519469786   -3.83579844157884    0.01680060020964
C          -1.39762164578903   -3.13873587004120   -0.24518270225245
N          -0.58303550220991   -2.34709039821427   -0.38734309255656
C          -0.57225961425772   -5.85517669325472    0.02716335700235
N           0.54688571394910   -6.09597937522792   -0.00084547981172
C          -5.08412981307422   -7.22746638791795    0.33221314042920
C          -6.43080957199796   -6.83447100980846    0.45132093856999
C          -6.83587460683996   -5.44886067621196    0.47861297266855
N          -8.16314257182747   -5.32884524353542    0.55313514106440
S          -8.81223249186056   -6.78860088053141    0.62116863034663
N          -7.47990232338384   -7.65783772196853    0.50132635814001
C          -4.77814111074776   -8.62076869363144    0.48770396456339
N          -3.88565718435550   -9.37129497991830   -0.21863338013313
C          -3.16355437343563   -8.98994236164244   -1.40927217338437
C          -4.10692879523058   -8.66048184568904   -2.56125626950281
C          -3.88031882701206  -10.71430484907453    0.22076732184297
O          -3.19741779311482  -11.57912101470778   -0.28655409620199
C          -4.82768112213736  -10.74179195287104    1.31377686144851
C          -5.38150933882746   -9.45141317715721    1.43415727415143
C          -6.29102038561546   -9.45059850549313    2.56869450638977
O          -6.97540596559446   -8.58978546035766    3.07062876242886
N          -6.24067057588085  -10.77768936186927    3.04137329462490
C          -6.99106924867806  -11.18135609016274    4.20783064937351
C          -6.11621809530676  -11.23068873436940    5.45772381652624
C          -5.37557892839430  -11.55725932007235    2.31616788554766
C          -5.14278237505276  -12.92258216389152    2.57420537024510
C          -4.30247427461358  -13.68801417402319    1.81569212931603
C          -4.06301215917513  -15.05991129113898    2.05119363723946
C          -4.54020717477847  -15.86605690400052    3.06789187020013
C          -4.04305263788231  -17.18550277812823    2.89487728210727
C          -3.20716626846045  -17.15299043447292    1.67604653421162
C          -3.21925612001827  -15.88632083723515    1.19246236414639
C          -2.50023356862284  -18.22719172212521    1.12145743840636
N          -1.90641870441959  -19.08861121394136    0.64843607758641
C          -4.28774951596698  -18.27641155102022    3.69852363183828
C          -3.86706345999206  -19.62354268884150    3.49553910649180
C          -4.38886871121402  -20.41577343233173    4.49430517699636
C          -5.11783055528654  -19.55220967584994    5.41392145258687
C          -5.06150801970470  -18.27601137927736    4.95083680933203
C          -5.62660891994681  -17.16649026315150    5.58865649449045
N          -6.09750965975133  -16.26995090770193    6.13172462360053
C          -4.19982279249534  -21.81641952129247    4.62989017342213
C          -4.95644499754108  -22.69890463466262    5.33500859415747
C          -4.38907102580540  -24.02027346996082    5.73444188388335
O          -3.38646024338356  -24.53617665778771    5.30378550279110
C          -5.28194632305204  -24.51090327335828    6.80428381018366
C          -5.13949060418952  -25.60958310394891    7.60206543951477
C          -6.11122394224031  -25.86823616514597    8.59456961895616
C          -7.21430735577548  -24.97749470138466    8.74402348362089
C          -8.17320294533724  -25.23562132287700    9.74415436701931
C          -8.04491921009587  -26.32782028076844   10.55561011448538
C          -6.95522531692786  -27.20976250303980   10.40508238114362
C          -6.00829687241623  -26.98626296261242    9.44513593061648
F          -6.85502772500659  -28.27097077521036   11.21492139614121
F          -8.95592452091620  -26.57099746024607   11.50539813189868
C          -7.34169905764439  -23.85326651134002    7.89659127518532
C          -6.39155779771175  -23.62680202415606    6.93696234418449
C          -6.27528091795945  -22.58398385839178    5.92174834160488
C          -7.30253153944564  -21.81162400106093    5.44746721171729
C          -7.21198733805466  -21.01881968576134    4.28283492239804
N          -7.21151176066901  -20.41095799538318    3.30943126509844
C          -8.59396360632685  -21.79812412663916    6.01433692538820
N          -9.65007013476752  -21.74238789874346    6.45950017555789
H         -11.02597919827586    2.15202215848174    3.36695398876201
H         -11.21162230567665   -1.98126659690419    6.09818599460585
H          -9.40244183298139    1.11811451745641    1.87071886494924
H          -9.53725932743249   -3.05903847268223    4.59092005571159
H          -5.63114926498713   -2.40566575697422   -0.27810377385705
H          -2.54102649038211   -9.85121089079786   -1.66626752051827
H          -2.51698352507573   -8.13905107736722   -1.18236479800480
H          -4.75009748182406   -9.50996611046303   -2.77995764683814
H          -3.52853333600907   -8.42501824768116   -3.45009394835762
H          -4.73471417725758   -7.80490318974858   -2.31895677423661
H          -7.46152110168592  -12.15049721169005    4.02275050017166
H          -7.77342728746293  -10.42880708189935    4.33794009235892
H          -5.29835837104660  -11.93749415172557    5.33796522557161
H          -6.71522779429255  -11.53506279291033    6.31101288832341
H          -5.69828755953406  -10.24730556241294    5.65857612795114
H          -5.66874175896592  -13.37445033827907    3.40215707522477
H          -3.78583368269104  -13.23642542205859    0.97873873156736
H          -5.18675367763524  -15.56930974363501    3.86889555473209
H          -2.70538241567888  -15.52307690706597    0.32181942931742
H          -3.29045784721032  -19.96778333663817    2.65939107483774
H          -5.56926126081860  -19.86801207781744    6.33665429523176
H          -3.30708282397240  -22.22764154823081    4.16904236238794
H          -4.29564875930318  -26.27123883941904    7.47925405540779
H          -9.01514179942553  -24.57304710709862    9.87063523968528
H          -5.18032345512708  -27.67015520569790    9.34301980612262
H          -8.18189247070376  -23.19126278861613    8.03481690446402
