113
 SCF done       -240.155074412953          0.000723315321
C          -3.17859651508528    0.75376737036636   -8.99415759459594
C          -2.39087916585588    1.11835513130347  -10.04947238228323
F          -1.79438815377697    2.31643759438559  -10.06184510836440
C          -2.19637479157914    0.24135546636970  -11.13669440301195
F          -1.42114691434029    0.62723194301548  -12.15731740101767
C          -2.79171735867562   -0.98884545135337  -11.15212517605942
C          -3.60833166800461   -1.39506885882188  -10.07861613668600
C          -3.80730663993356   -0.50810586671258   -8.97967578901458
C          -4.62142025614842   -0.89367758615447   -7.89179690226695
C          -5.21279605294670   -2.13048974763767   -7.90042802738548
C          -5.00350353326859   -3.01347704874685   -8.99949902263382
C          -4.22951493781440   -2.66352964763257  -10.06786904488163
C          -5.73300095242878   -4.27082159507792   -8.75989224992087
O          -5.99785202785197   -5.14744408670970   -9.54653679331926
C          -6.21096394836144   -4.16821014894418   -7.34347891312117
C          -6.06901338456350   -2.78545397071081   -6.91956072005903
C          -6.65000268126558   -2.20633777064111   -5.82528794394878
C          -7.54263248914322   -2.88195674274925   -4.96593879299789
N          -8.28933289635990   -3.39676719074909   -4.26253561040476
C          -6.47110182531163   -0.85539855277464   -5.45722764933048
N          -6.36131545177048    0.23372240829193   -5.11436510654639
C          -6.58767859573953   -5.23300325578535   -6.60372432925325
C          -6.45615656827791   -6.60095802033668   -7.00925094383687
C          -5.36806584236514   -7.25404313363483   -7.55852260908701
N          -4.10499086997862   -6.73600913073168   -7.90632547919308
O          -3.28323205930616   -7.52049748696964   -8.33769589247470
O          -3.88056341528550   -5.54616360081105   -7.73006315318531
C          -5.64646368860226   -8.67065485761659   -7.62439463691330
C          -6.86284484686792   -8.90111371566326   -7.07547259283680
C          -7.43208633957946   -7.64317452469367   -6.67045861249883
C          -8.69960760627530   -7.40943446441692   -6.18210367571700
C          -9.44697415084685   -6.20263796513378   -6.32930791121923
C         -10.74290259798191   -6.42976094848428   -5.96809132398048
C         -10.86909550819587   -7.77558790842628   -5.50230153892263
N         -12.04966653166199   -8.26355602879692   -4.93893749956749
O         -13.04522540880440   -7.56881557099685   -5.01252509841545
O         -12.04662248063873   -9.36753161113491   -4.38107672236285
C          -9.61346270756465   -8.40488029764392   -5.58567807573424
C          -9.35440886249574   -9.65223876116631   -5.01946063737849
C          -8.18657927819648  -10.19196240597761   -4.53116447454099
C          -8.24797183263354  -11.31280258350115   -3.69974953210601
C          -9.35777316250755  -11.88593011137628   -3.07288907283204
C          -9.02706048348861  -12.93694220135522   -2.18432016496641
O         -10.13094799610714  -13.43917413444527   -1.61478523326890
C         -11.22854888889507  -12.66677361491508   -2.06733466632864
N         -10.69709176697296  -11.72687072629981   -3.02995945968153
C          -7.67677170835675  -13.23893165902528   -2.08117038650060
S          -6.79948053587767  -12.15711706728892   -3.15999143903532
C          -7.07516371199785  -14.25989572146786   -1.31218510087189
C          -7.70315265798802  -15.00559148958718   -0.31508604318939
N          -8.87787849452887  -14.70987783378638    0.39959968020804
O          -9.15992841117288  -13.54169028557888    0.59568695259585
O          -9.53019878182886  -15.65934005080640    0.80093032569918
C          -6.91947560139237  -16.16643751093852   -0.01646987223019
C          -5.84595812118015  -16.19433769735577   -0.84967500477038
C          -5.85415954449308  -15.01736376091901   -1.66480161624224
C          -4.85421755981583  -14.72915579464720   -2.57780105645102
C          -4.19254575940819  -13.48996065177416   -2.80738664723138
C          -3.09657782259328  -13.71596511573804   -3.58864713413038
C          -3.07154715672084  -15.10000049366553   -3.96087872204570
N          -2.10560890190347  -15.63372151750076   -4.84271366989790
O          -1.20507223628802  -14.89386047970816   -5.18751687379694
O          -2.22179815741743  -16.79310168712001   -5.19839156367804
C          -4.13593493663407  -15.76122719463304   -3.36169845440201
C          -4.52552391907998  -17.10754624939720   -3.57779906981714
C          -5.77390983722751  -17.63876992845423   -3.45412811852428
C          -6.97554052324562  -16.89260794599682   -3.30331419670644
C          -8.16146556236754  -17.22927730178773   -2.72652416733678
C          -9.31888571716902  -16.32566396357783   -2.95495262881260
O          -9.29097167871237  -15.27828693648285   -3.57268953513476
C         -10.46639283892851  -16.96290016636953   -2.30112881280959
C         -11.76498550553350  -16.54404336973364   -2.24400513124260
C         -12.70454397472525  -17.30324470220678   -1.51586644380710
C         -12.27707067444038  -18.49665025927540   -0.86557593660668
C         -13.21442818625894  -19.25090392792550   -0.13156281878601
C         -14.51468583916644  -18.83842114159123   -0.04630180838398
C         -14.93688069255072  -17.65820009627208   -0.69257953105630
C         -14.05190373536218  -16.90594490594283   -1.41291787448901
F         -16.21673484632716  -17.27962292881860   -0.59638301705489
F         -15.40417271675982  -19.55363377789092    0.65061145222123
C         -10.93070752158617  -18.91417232757796   -0.95473313629513
C         -10.03157328658433  -18.15753686820356   -1.65954482269007
C          -8.59250185007934  -18.31651768247290   -1.86653123363257
C          -7.82253193513596  -19.25789726851720   -1.23826014156071
C          -6.41428662717770  -19.31957790489595   -1.21176021802298
N          -5.27915300165016  -19.42173102234485   -1.07331361723818
C          -8.34046693222569  -20.29234591494863   -0.42534098470919
N          -8.67935408496803  -21.17281482371610    0.22747121188866
H          -3.31724144643185    1.43708224469743   -8.17086750018856
H          -2.63140902839720   -1.64859475620057  -11.99036855340401
H          -4.74874622824523   -0.20606794560471   -7.07076098741400
H          -4.08367241522333   -3.34959205322204  -10.88792882376170
H          -6.98737005598637   -5.08516012267883   -5.60763864036851
H          -4.96720646758984   -9.38285696209502   -8.05228741236851
H          -7.38124688187693   -9.83919493861604   -7.04302152305371
H          -9.06634884053548   -5.29866975346242   -6.76192479916923
H         -11.55905563710531   -5.73278267791294   -6.00288488395279
H         -10.24544305412504  -10.22655047619275   -4.82603086502848
H          -7.22075504878501   -9.74216136022331   -4.70451301613972
H         -11.69188731917560  -12.16553840913617   -1.20258478877555
H         -11.96836783348145  -13.33360082850166   -2.53357575288612
H         -11.24620152772550  -10.94652397047680   -3.36977134299439
H          -7.15686830547655  -16.85405818589520    0.77354819543494
H          -5.04192665594280  -16.90352193805651   -0.83347879563864
H          -4.42704896937443  -12.57288523137618   -2.30444544567218
H          -2.35084498470313  -13.00526468839598   -3.89100337407567
H          -3.72622439274883  -17.76699880662520   -3.89441625591928
H          -5.87258468387514  -18.71043028515196   -3.55632440212472
H          -6.99597542002704  -15.91755251677946   -3.78653700159934
H         -12.07310767270734  -15.64284424134774   -2.75110913477970
H         -12.90759202680743  -20.15486587995748    0.37090520006579
H         -14.39377149028931  -16.00618757375143   -1.90017994485993
H         -10.64636889326622  -19.82604980559941   -0.45646884018129
