113
 SCF done       -229.681527171254          0.000959269813
C          -2.61094298949387   -2.44384033744418   -2.63504402852168
C          -2.03799714703778   -2.84801839604208   -3.80819610181870
F          -1.08432085002263   -2.10570500140900   -4.38295239033877
C          -2.44151358414590   -4.04879855647591   -4.42713310700501
F          -1.86284357798792   -4.42081933309666   -5.57608208723288
C          -3.41290643801143   -4.82820221300526   -3.86439164360613
C          -4.02276606324641   -4.43876811338890   -2.65584854475780
C          -3.61401358021125   -3.22603631810972   -2.02798237494836
C          -4.20593239084265   -2.81950810829507   -0.81070956455355
C          -5.17355029590172   -3.60289723246678   -0.23888308526381
C          -5.58503878448638   -4.80711647274718   -0.87777152656280
C          -5.03162953996125   -5.22352058045376   -2.05503822895922
C          -6.64743394011832   -5.45051787046773   -0.08416856794778
O          -7.26623953547472   -6.45322421807078   -0.37477780538171
C          -6.86410184183148   -4.55722390998881    1.08270248785847
C          -5.92132246856990   -3.45780564626523    1.00405254781771
C          -5.69654258360485   -2.52572901473701    1.98024132070796
C          -6.32879579937044   -2.54065329390444    3.24268123695952
N          -6.76796457055848   -2.54110514379778    4.30282811400908
C          -4.75836054956125   -1.47777666345342    1.87045289468715
N          -4.01085562747139   -0.60830544021125    1.82772982080550
C          -7.91010081677187   -4.67966880837358    1.94382847006304
C          -8.71689544522013   -5.84493225969997    2.06769292761328
C         -10.10418284567528   -5.89736847981524    2.09898598596610
N         -10.96459067676581   -4.78905231935060    1.99953503820642
O         -10.46232236823916   -3.69840025639360    1.77646632637104
O         -12.15617389937299   -4.98396024482597    2.14771014771807
C         -10.53417956427746   -7.26233280408292    2.16738893975806
C          -9.42975228082054   -8.05527149392887    2.14439193335889
C          -8.25472079091473   -7.22490706752770    2.09857131684645
C          -6.93926371409694   -7.63173936613300    2.25800527091114
C          -5.91266438633504   -6.92700169553833    2.93324198709576
C          -4.84183915070772   -7.76517951284613    3.11298617538062
C          -5.11490249726565   -9.01537745802375    2.49255731246030
N          -4.19508444666245  -10.06381919410732    2.45335451620212
O          -3.11663810165067   -9.89476648111060    3.00011935448128
O          -4.50875363751313  -11.10829903166332    1.88959143709770
C          -6.39152273270604   -8.95981243785963    1.90208679980709
C          -6.95664678796242   -9.88258734317247    1.02911715858390
C          -7.98534689677796   -9.60892102940459    0.14498411622667
C          -8.60990172855592  -10.59469055913689   -0.61053265864909
S          -9.90380066118529  -10.19044756078101   -1.71921129250874
C         -10.13950999455522  -11.83483082510356   -2.19767276730033
C          -9.22354540995601  -12.67202317383123   -1.54082823836609
C          -8.37387831354104  -11.98948931246530   -0.63871326926162
N          -7.45271424228279  -12.65707082713881    0.07552362983883
C          -7.37543279245074  -13.95383644464798   -0.12692611668704
O          -6.48293363330364  -14.67596729083145    0.51569337722211
C          -5.59799133253663  -13.98845635450804    1.41134384841006
C          -4.60293538834306  -14.99197725070339    1.95857703985490
C          -8.25521111103318  -14.65240730634870   -1.04151602104606
C          -8.13535374957306  -16.13375104323845   -1.17890631763505
N          -8.85496222207179  -16.63389246165270   -2.32636302811469
N          -9.15934702263159  -14.00534830816669   -1.72019386821208
C         -11.12946721924241  -12.28913561162510   -3.08380058315499
S         -11.23892885792356  -13.98420055921677   -3.45650282642856
C         -12.62136621204885  -13.71859020587701   -4.47458194493020
C         -12.95710951626486  -12.35570632406124   -4.51260299678520
C         -12.11291346440972  -11.56143807432921   -3.73296202740737
C         -14.01948942470387  -11.79925752273706   -5.24759598612596
N         -14.86732922072164  -11.30439561627338   -5.84127231119464
C         -13.25891696338955  -14.83100813695461   -5.07036557295024
C         -14.43851871363430  -14.78629494740573   -5.74361972545460
C         -15.09859948809126  -15.93846481760610   -6.23047989914097
C         -16.40790314836432  -15.99951095481601   -6.59915734585711
C         -16.91297440501249  -17.12667352098159   -7.43228431529696
O         -16.34666068827451  -18.17098538169447   -7.65326222661303
C         -18.21018962408758  -16.66033983086724   -7.96088511780903
C         -19.03398204542643  -17.26661092681809   -8.86544283073182
C         -20.22854899717419  -16.61765862339227   -9.24980464672242
C         -20.54194305210151  -15.34274708438524   -8.69424898586158
C         -21.73134488751988  -14.69705678156375   -9.08770860509253
C         -22.57222287401764  -15.29086927106682   -9.98672382486231
C         -22.26238371672176  -16.55282188903834  -10.53390784070397
C         -21.11531095359313  -17.20326069825150  -10.17436336764065
F         -23.10455849078402  -17.11044920758256  -11.41278963273917
F         -23.70259612766741  -14.67799392763760  -10.35779083240221
C         -19.67240454816227  -14.74102401632108   -7.75610365466102
C         -18.52744273461349  -15.39493715577116   -7.38666381397395
C         -17.48428390073372  -15.04581300642548   -6.42500864086242
C         -17.61598075330591  -14.13923658008741   -5.40614789158206
C         -16.72491764520801  -14.02232093985773   -4.31795688124622
N         -16.06805704789834  -13.93353722242353   -3.38081184584123
C         -18.73923812484881  -13.29712652637510   -5.25431287419749
N         -19.62972413290343  -12.59161364473364   -5.09643851077366
H          -2.28948738507324   -1.52329939213360   -2.17343737379242
H          -3.71021606980069   -5.74380978129148   -4.35115118672441
H          -3.88142182075289   -1.89484055649783   -0.36127611060119
H          -5.35741097141666   -6.14151602978427   -2.52027085611240
H          -8.21018289080309   -3.82731124760214    2.54321952895958
H         -11.56314563720561   -7.56148012167520    2.22273267477303
H          -9.40728282358788   -9.12209415207179    2.25707941648389
H          -6.01621321784630   -5.94317825604869    3.34977273248096
H          -3.93017638801835   -7.54666174115376    3.63750458479888
H          -6.51584786724969  -10.87224238961702    1.00028441764751
H          -8.29387330464609   -8.58473953130231   -0.01580424028000
H          -6.19069143749138  -13.53668372600468    2.21296233206726
H          -5.09263135406591  -13.17961902044771    0.87727040988853
H          -5.11325231422735  -15.77635118665091    2.51141253404103
H          -3.91422610943503  -14.47729550819313    2.62076969235622
H          -4.04006028559736  -15.44506408569350    1.14708780492136
H          -8.46464027076909  -16.56475365770614   -0.21343716984191
H          -7.07434630219099  -16.38828914995478   -1.28477867487042
H          -9.77460327833577  -16.21214302321341   -2.37775709034520
H          -8.94907877829275  -17.64100353970419   -2.28298543534632
H         -12.21530966516150  -10.49502763870535   -3.63233898838222
H         -12.79079235646920  -15.79109287022383   -4.89335023422075
H         -14.91663426979675  -13.83261527252522   -5.90809312924460
H         -14.51865411717248  -16.84422862018269   -6.37010943095917
H         -18.77794980795521  -18.22892157218446   -9.28193310304366
H         -21.98497185170063  -13.73273899265883   -8.67591543205724
H         -20.89273356198225  -18.16809920146951  -10.60244113920587
H         -19.92893808367690  -13.77204286374971   -7.35885787230499
