104
 SCF done       -203.766722945549          0.000374256526
C         -12.16187509804532   -0.74082362330896    7.39679525549614
C         -12.91745243535487   -1.12016209425875    8.47066457037244
F         -13.88941502819016   -0.32137341665457    8.92511348620847
C         -12.68502618381637   -2.35422243166375    9.11282809515890
F         -13.44148386839277   -2.69909669805204   10.16120491687310
C         -11.69913039835426   -3.19165094863923    8.67163183809636
C         -10.90396488599074   -2.82905052631754    7.56696934602625
C         -11.13733824424570   -1.58168855344754    6.91675911158124
C         -10.35222096023417   -1.19744850571655    5.80622709163590
C          -9.36208722798376   -2.03379487561300    5.35927134963130
C          -9.13957499420849   -3.27909240246123    6.01289893504526
C          -9.88300548928610   -3.67780865837310    7.08714707693180
C          -8.05141667833408   -4.00416384392507    5.33697530197190
O          -7.64339579966719   -5.11544042216403    5.59322774455781
C          -7.62455148772748   -3.12566001597889    4.21143788928733
C          -8.41161666178138   -1.90346209980219    4.26007162537768
C          -8.24377394652000   -0.80267720548729    3.46620590045188
C          -7.25778542816586   -0.68414671967552    2.46198443491246
N          -6.46698155890493   -0.52081968885466    1.64697232788438
C          -9.01913950260121    0.37263901092920    3.57158423086070
N          -9.62081090871804    1.34849221250874    3.61281530670263
C          -6.77346032442967   -3.54015118572021    3.23883380778463
C          -5.98755000426620   -4.73211350694944    3.32709444651527
C          -5.76733778751885   -5.63196941576331    2.32006934060700
C          -5.02606877581955   -6.74856733360104    2.84624810531188
C          -4.72055865226844   -6.40418710758975    4.24415542064212
C          -5.30264092236575   -5.21038863930428    4.52538213221216
C          -3.93832409776954   -7.14522380155787    5.13828401877714
N          -3.29088543183257   -7.72756228475260    5.88692641092023
C          -4.73130312120125   -7.92039196516331    2.20892175231575
C          -4.08792462965530   -9.07958713141964    2.77223811170611
C          -4.02572662017558  -10.05636443962286    1.82760614576367
C          -4.63792343680174   -9.55733645824110    0.60624123236418
C          -5.05893646675452   -8.28282759071295    0.81768303320052
C          -5.69448195937806   -7.47511179645704   -0.13158174495225
N          -6.21410826524069   -6.83415237845526   -0.93059979673137
C          -3.50908152678984  -11.41310207602763    2.01858830425381
S          -4.78885716977349  -12.78818867857944    1.75140241487636
C          -3.16964041112674  -13.49444859102822    1.23530577818949
C          -2.69061784040320  -12.08839412140836    0.91691053830988
N          -1.27256376962951  -12.23516203478725    0.68351939841886
C          -1.25100860301768  -13.45689431744573   -0.13298405701168
C          -2.60714875787055  -14.27841584624770    0.06488181000630
C          -2.36380049927012  -15.70865909263913    0.34349646662359
C          -2.80584061925869  -16.77754416970240   -0.37077012337158
C          -2.32923200282608  -17.98725799528597    0.24368307503046
C          -1.54874146211291  -17.55833258304722    1.42224903705673
C          -1.57444177753281  -16.20177639961200    1.46426105165568
C          -0.89859886787149  -18.37643836855391    2.35216285031668
N          -0.35972052971010  -19.00989563845202    3.14441050126590
C          -2.51518577402129  -19.27293484068208   -0.18021661783272
C          -1.96942339308111  -20.46746318317825    0.39775341181481
C          -2.26034731808766  -21.53136667749691   -0.41584329039082
C          -3.08294923835102  -21.04504596249475   -1.51839753906282
C          -3.25737877887021  -19.70659704692373   -1.37657326854957
C          -4.02416849499276  -18.90315416016348   -2.22894652426217
N          -4.66733966710528  -18.27648748826306   -2.94451828346065
C          -1.85736317525898  -22.88336853458277   -0.21579167117724
C          -1.65437158741019  -23.83113149719354   -1.16467680896671
C          -1.62833157020497  -25.27749583597216   -0.79456988745874
O          -1.54713685554996  -25.73561010937904    0.31895181867502
C          -1.78445339648671  -26.00155089866650   -2.07198455324383
C          -1.93391280287040  -27.34239583238314   -2.28231724185487
C          -2.08362201351072  -27.81802203082551   -3.60402992911485
C          -2.08322214666891  -26.88997035030071   -4.68636808358040
C          -2.23673210681644  -27.37112174601628   -6.00226843970128
C          -2.38012327300222  -28.71046403055955   -6.23313392522209
C          -2.37938892931868  -29.62763559527280   -5.16202646957137
C          -2.23452618604114  -29.19211932834300   -3.87462144051870
F          -2.52300781259121  -30.93341867992543   -5.41835734155902
F          -2.52326618583498  -29.16629041937323   -7.48294956239689
C          -1.92298294181399  -25.50769149481010   -4.43929387701722
C          -1.76801173674344  -25.07018937035062   -3.15061499848685
C          -1.53964774544233  -23.73495369874204   -2.60694680938858
C          -1.06716935315191  -22.65698882054867   -3.30706625329862
C          -0.57272093719196  -21.48082614960159   -2.70313084529786
N          -0.09146855673400  -20.53514409936476   -2.26576110230583
C          -0.91876588974590  -22.64136272680358   -4.71028710421168
N          -0.80396677142086  -22.57969212478791   -5.85005835261314
H         -12.35307851326319    0.20693095412779    6.91819005857929
H         -11.53367527290959   -4.13252747190667    9.17271448966244
H         -10.55802404871583   -0.25130364483188    5.33229970766884
H          -9.69295417984070   -4.62821327813660    7.56229950696891
H          -6.70411208174017   -2.98980730655925    2.30879624680367
H          -6.15242455406234   -5.57215451522596    1.32060249738912
H          -5.22493058273776   -4.66747536865455    5.44772793054743
H          -3.72951494426366   -9.14314576642734    3.78052215167101
H          -4.74963070396635  -10.11557930959312   -0.30457160250577
H          -3.08774144795623  -11.54441654793652    3.01709449889762
H          -2.72442468915342  -13.85850313524096    2.16682766296350
H          -3.12222621241117  -11.78081213780915   -0.04301230489804
H          -0.76326965980625  -12.35908225929731    1.55382690303661
H          -0.38334690987976  -14.06892376001776    0.11138157574380
H          -1.17694745034954  -13.16112190472542   -1.18074229249169
H          -3.23494072995547  -14.17559632629841   -0.82236625465999
H          -3.41002666724536  -16.74529233477883   -1.25555381891722
H          -1.08839104517692  -15.58977511410510    2.20260210924086
H          -1.36615153985847  -20.49906229936417    1.28361151985515
H          -3.52199528378237  -21.66423858207214   -2.27964758340903
H          -1.74654404654258  -23.21061196465064    0.81313424430481
H          -1.93565618820422  -28.03096839870645   -1.45115170674781
H          -2.23593043055654  -26.68339958623436   -6.83345812809221
H          -2.23584861451358  -29.90650642641517   -3.06635124324361
H          -1.93421844547028  -24.82657432756656   -5.27534647496530
