108
 SCF done       -210.932350144744          0.000671360562
C          -9.98267741560503    1.42590051261545   -0.35578157368537
C         -11.03536018388892    1.60061625126572   -1.20985036899369
F         -11.58963185233069    2.81022690980991   -1.35675685683568
C         -11.55052779560697    0.51385541299272   -1.94511396544403
F         -12.58201768002869    0.71415591837634   -2.77551080991507
C         -11.00679175903348   -0.73335795066133   -1.81458902216592
C          -9.92240750243984   -0.94560290441041   -0.94130304397394
C          -9.39878932529691    0.15274072556537   -0.19942750405950
C          -8.30882036938578   -0.03489483075492    0.68121125899256
C          -7.76102739050256   -1.28314105791088    0.81904402339828
C          -8.29694389304746   -2.37504511878691    0.08080408455558
C          -9.34497874983238   -2.22457591999256   -0.78117631519194
C          -7.55517506960639   -3.60041847231306    0.42268172188580
O          -7.74508521431617   -4.71027953558054   -0.04089601844868
C          -6.55647513476323   -3.20747623746693    1.42888459686643
C          -6.65402410032819   -1.77259154620300    1.63764796241935
C          -5.85398799670916   -0.98985402482612    2.42739469412286
C          -4.75743437051355   -1.43523239637804    3.19653033958994
N          -3.84920704050140   -1.71067755638799    3.84287096567825
C          -6.00872635521923    0.40632920017416    2.56855268851250
N          -6.07769708824263    1.54066627101554    2.72892939929064
C          -5.71354925195826   -4.05605378784422    2.09584890227947
C          -5.56087111067332   -5.45136803451731    1.99943876206597
S          -6.39299276673635   -6.53623690254127    0.91557513512231
C          -5.57070880559472   -7.91248747966976    1.58074494605389
C          -4.68331158850942   -7.53601753928789    2.60578817354467
C          -4.68671337598607   -6.15963069664396    2.81807173725403
C          -3.83733326724740   -8.44310489214017    3.38644883995401
O          -3.07055145855807   -8.07118930162137    4.23899559592899
C          -5.82242407112563   -9.22185453659101    1.11998764094131
C          -6.66786465204821   -9.51806831995814    0.09301279480051
C          -6.92127958216163  -10.84726368975535   -0.31147785658501
N          -7.74124729652076  -11.19326389354272   -1.36119769837120
C          -8.38656266616609  -10.28651492628574   -2.27992973926742
C          -7.40248762189266   -9.71568959337499   -3.29772481536276
C          -7.84670791572661  -12.58546457436204   -1.51223122672076
O          -8.51178231696799  -13.12332726424842   -2.37516876457820
C          -7.02440397801782  -13.12256990553789   -0.44999222955073
C          -6.46182949805684  -12.03687018261991    0.25977315170559
C          -5.64955607724522  -12.57808392568166    1.32838190504215
O          -4.95862528310914  -12.04192935302844    2.17410875163715
N          -5.78771766456358  -13.96767824713244    1.20323332599566
C          -5.11665672408773  -14.87105156999934    2.10849345942345
C          -6.04228717888565  -15.40478537537416    3.19890540127883
C          -6.60969675323763  -14.31020471935862    0.15394257415480
C          -6.95352846110672  -15.64199398279217   -0.16391607028321
C          -7.75306361211082  -15.99079498437736   -1.20736770056950
C          -8.14387421856631  -17.33081062786459   -1.44207959780322
S          -7.68055836366047  -18.60294864488328   -0.34436759225891
C          -8.59354251094929  -19.79669797048597   -1.21577442724154
C          -9.19274212417848  -19.21177177780032   -2.34377736523749
C          -8.94599589076043  -17.83505509122309   -2.44569983897179
C         -10.03122395823082  -19.91444001836242   -3.31332889786560
O         -10.54590709029923  -19.39099325178846   -4.26786400542465
C          -8.64392621236201  -21.15538337171951   -0.81857998317999
C          -8.33462645159323  -21.69013270670393    0.40146097792749
C          -8.09596953453417  -20.91775376741097    1.55810188521114
C          -7.51403434672613  -21.19079631328569    2.76288068624442
C          -7.17351425704298  -19.99687185856454    3.59132659847603
O          -7.53580131692686  -18.85811180897633    3.38982367686722
C          -6.24936156563063  -20.47851932119319    4.62918403540458
C          -5.59040718225725  -19.76215999752332    5.58665317479100
C          -4.71150810922763  -20.43478733384548    6.46345666479499
C          -4.52457880098140  -21.83998422713809    6.31757916451696
C          -3.63932724609667  -22.50649550622277    7.18842622492534
C          -2.97539965726821  -21.81150884931791    8.16021507196032
C          -3.16336208770140  -20.42178889788705    8.30473612300528
C          -4.01288272215012  -19.74619816644021    7.47420091775392
F          -2.49917372766039  -19.76680458000841    9.26518121658339
F          -2.13650068810629  -22.44653217660942    8.98759507876955
C          -5.22400277800974  -22.55420940927936    5.31735093381886
C          -6.08631835551623  -21.88556325327475    4.48936140458115
C          -6.96172598924833  -22.35910497897400    3.41352941138788
C          -7.30113052045141  -23.67366905680092    3.22580636952005
C          -8.31313560599122  -24.14297391862157    2.36625775586178
N          -9.14664882548788  -24.58867087880524    1.71427513004115
C          -6.73717559966217  -24.74577726146357    3.95102592074754
N          -6.31127223662223  -25.66329269526455    4.49341647244326
H          -9.59989238523179    2.26836442108843    0.19882740725158
H         -11.41333397181266   -1.55452513874611   -2.38388672058169
H          -7.93858296480785    0.81695802412575    1.22771230904878
H          -9.72998229535063   -3.07031491581348   -1.33033974808163
H          -5.06223555434977   -3.61584882954748    2.84137128186593
H          -4.06690568661247   -5.68788299209413    3.56099008369521
H          -3.94905322479425   -9.51318398352616    3.14423158782406
H          -5.31264431724289  -10.03160225631140    1.62381252571022
H          -7.17321770948382   -8.71567405843641   -0.42654757336542
H          -8.87532211554121   -9.48416071747828   -1.72042436025328
H          -9.15095863270285  -10.87405940389291   -2.79597931430048
H          -6.61316998020168   -9.15285792338309   -2.80446660783646
H          -7.92566672942575   -9.05561541134896   -3.98361304232800
H          -6.94900661495588  -10.52193681911198   -3.86916498577750
H          -4.31352629002604  -14.28789955320645    2.56868597939326
H          -4.67285446110724  -15.69250610031672    1.53885232128799
H          -6.47963702664383  -14.57764984691956    3.75244948901821
H          -5.46878612984399  -16.01824580277076    3.88804068378816
H          -6.84428872009488  -16.01290712253583    2.78813327962791
H          -6.57186027059753  -16.42141800400346    0.48229888918847
H          -8.14078077569388  -15.23629120892043   -1.87950871868726
H          -9.35389139550356  -17.23264104699514   -3.23770706121936
H         -10.17004551749720  -20.99268526518143   -3.11195461830534
H          -8.94313045673323  -21.84962173201119   -1.59318749571673
H          -8.31751043150031  -22.76607989328814    0.47092968680719
H          -8.38272035594563  -19.87192954200822    1.49080781765980
H          -5.74189765779563  -18.69712581275105    5.67559111209420
H          -3.48640635727590  -23.57028533499907    7.09472635898415
H          -4.14616576199845  -18.68283979713402    7.59770413880369
H          -5.05130896850658  -23.61449217705419    5.23009085040909
