102
 SCF done       -211.602959762898          0.000846162414
C          -1.36977411691886  -11.51728321672882   16.48499760199454
C          -1.36349284566040  -10.23338696025603   16.95341571474529
F          -1.18785770525076   -9.99394232517751   18.25748536374226
C          -1.54061364356467   -9.14628032889057   16.07208379848489
F          -1.52901116066743   -7.90060132379642   16.55987953671359
C          -1.72281814959622   -9.35900433935382   14.73429697891524
C          -1.73466873840709  -10.67073322317952   14.22102950547777
C          -1.55286504579560  -11.77055208816246   15.11031176885833
C          -1.55104359359667  -13.09483040354988   14.61754712191099
C          -1.72112129381513  -13.31455325328456   13.27458173194583
C          -1.91056032319465  -12.21114295721609   12.39738396719428
C          -1.92168267262288  -10.92035581375809   12.84427443205875
C          -2.07166585784882  -12.69370931611139   11.01547390682622
O          -2.32000566304499  -12.01878561167103   10.04400317065893
C          -1.95220306005933  -14.18190198250377   11.09403015229228
C          -1.73887776363234  -14.54379486612966   12.48951277101114
C          -1.52555179646770  -15.80222223771577   12.98606543733832
C          -1.47855119222606  -16.99434903874572   12.23051712252049
N          -1.41537675077672  -18.00534641377151   11.69028656370173
C          -1.30441487071227  -16.08538144961886   14.35246307427626
N          -1.12527480378822  -16.38515484926655   15.44521854183970
C          -2.14707706297408  -15.06340576209328   10.07494663911268
C          -2.23089083888547  -14.81202502451550    8.67697275955958
C          -1.78141999249994  -13.75631627206133    7.92614068148538
C          -2.06107041288564  -14.01090056910373    6.53961911841131
C          -2.70514949487202  -15.33785160655205    6.49028466676069
C          -2.78768267286379  -15.80840263805839    7.75845981347956
C          -3.13169028216226  -16.03125861067345    5.35304637496202
N          -3.48172273900310  -16.65269951043343    4.45385348588134
C          -1.81685128152023  -13.17015312786362    5.49148107077519
C          -2.20042849323846  -13.34594370347864    4.11192261429983
C          -1.86874366814789  -12.21708087643317    3.42356004312771
C          -1.22031860193235  -11.28399394557195    4.33160541690996
C          -1.16901000391725  -11.84672659372642    5.56630989933235
C          -0.55424019812241  -11.26180526648371    6.68191109251114
N          -0.01322837538916  -10.75274084467740    7.55696354321136
C          -2.16783734680283  -11.95450508484082    2.02538809695004
C          -2.31720135343791  -10.72409759394533    1.50462948704906
N          -2.19742175230645  -13.08849296267160    1.24788619210880
N          -3.02389019969361  -13.47699991036479    0.48814407034863
C          -3.49258186493090  -14.17472208611527   -0.45269564622294
C          -4.61236396382661  -15.04898485158458   -0.25525478421636
N          -5.17587056849233  -15.15221636120441    0.99356874811304
O          -4.66030592341830  -14.45410941441960    1.87931281541570
O          -6.13420833192259  -15.88810891947698    1.16284202365780
C          -4.90692905709550  -15.68063257787122   -1.46929755335698
C          -4.01143132035130  -15.24427810484355   -2.42708543569062
C          -3.10013573769793  -14.32161455279331   -1.87884757117325
C          -2.02387168357434  -13.67499403759928   -2.47138129774261
C          -1.50948011459232  -12.40019685670516   -2.08056814003000
C          -0.65779474895836  -11.95079498617354   -3.04241721793683
C          -0.55891953005321  -12.95296238557834   -4.05814650091513
N           0.27474658439084  -12.81360934781889   -5.18191581100426
O           0.87616732805377  -11.76010949963383   -5.29940478775271
O           0.34379805440352  -13.73458839750383   -5.97865929711301
C          -1.35048935772235  -14.04908677341027   -3.71606842370295
C          -1.40421751622902  -15.28945505101859   -4.41828252525769
C          -1.54715115742742  -16.52190659871945   -3.85940178643270
C          -1.50953164233970  -16.71279551862782   -2.45330756933737
C          -2.11245527076273  -17.62345250376428   -1.64131917035149
C          -2.24585287916325  -17.21991295563351   -0.21124074114566
O          -1.67604722515996  -16.28692592572569    0.31940155023660
C          -3.31976989304885  -18.05055090414907    0.33967471601668
C          -3.89801192022605  -17.99002888916167    1.57599963163444
C          -5.01229564469966  -18.81164573991857    1.84825070568209
C          -5.50448462405086  -19.68520966937846    0.83651253788885
C          -6.63247510152077  -20.48207098167435    1.11453267169235
C          -7.23850142190317  -20.40986070693408    2.33786514216719
C          -6.74792941529711  -19.54369247060447    3.33599213427967
C          -5.65433253480689  -18.76002176489914    3.09935557521117
F          -7.36561972552590  -19.50267053092508    4.52511942601485
F          -8.31068059448780  -21.16974644466129    2.60009048447400
C          -4.86726970445137  -19.74559492550365   -0.42478776007132
C          -3.78428044977451  -18.94388377606868   -0.66965883002589
C          -2.94097500520524  -18.79335384546348   -1.85399376771082
C          -2.85798084135696  -19.70017505594335   -2.87552294519783
C          -1.89168237826384  -19.66280356855529   -3.90033538275245
N          -1.10890470634591  -19.69650900108392   -4.73891009582564
C          -3.67974121767788  -20.84317741880620   -2.98093834915513
N          -4.32653912300718  -21.77949118804933   -3.12797789633482
H          -1.23104915841219  -12.33676307013736   17.17285805533326
H          -1.85652833272342   -8.51732967093487   14.07298181127758
H          -1.41425326271737  -13.90241061376698   15.31801077697160
H          -2.06349764930948  -10.10401270176228   12.15259738807074
H          -2.26027499340145  -16.10991936960707   10.33320220290079
H          -1.29909652204858  -12.87140599774402    8.28703710587366
H          -3.19977282424391  -16.75222342374517    8.06640362911654
H          -2.72050429434032  -14.19780520848763    3.71821161100017
H          -0.82270618855738  -10.32570320330625    4.05458356380521
H          -2.19113603262540   -9.84752459371592    2.11293190260142
H          -2.54564584526212  -10.56527416648250    0.46520576441903
H          -5.71017137270854  -16.37962767228844   -1.60855755083741
H          -4.02730037587642  -15.51609857858168   -3.46507321367891
H          -1.82367869368143  -11.85473275038107   -1.21320066631705
H          -0.13090514960664  -11.01660778945346   -3.07357550653614
H          -1.27637625538594  -15.22222170192034   -5.49152704025359
H          -1.67576488555174  -17.36930141176972   -4.51442855478356
H          -1.00967629652384  -15.92422907604587   -1.89596039619737
H          -3.52431768547181  -17.32449112695359    2.33883255673201
H          -7.02233091038719  -21.15269975189823    0.36463200642277
H          -5.28259643720218  -18.09237933464453    3.86048265458826
H          -5.26477078648323  -20.41275229402895   -1.17302030661135
