118
 SCF done       -239.168838576385          0.000944710079
C          -7.62340079451575    1.68592936439059   -5.89570161589298
C          -8.52914199669237    1.76013317111768   -6.91692642162260
F          -8.59999446573669    2.86135849533793   -7.67534474062391
C          -9.39727438801143    0.68296798639940   -7.18518537411043
F         -10.27482038853462    0.78243472038775   -8.19252813489186
C          -9.34820100895729   -0.45378232366174   -6.42764452833221
C          -8.42636874440016   -0.56018792995546   -5.36838675218686
C          -7.54638304815219    0.52754953394565   -5.09729123510821
C          -6.60705058017139    0.44065657663177   -4.04321958238515
C          -6.55368251128743   -0.69701446936587   -3.28387876508083
C          -7.44526789592969   -1.77457889319950   -3.55423691075215
C          -8.35792095533862   -1.72247050220716   -4.56795247858696
C          -7.19465090352556   -2.86004615913585   -2.59176585576260
O          -7.75212033545275   -3.94599572547434   -2.55719772910678
C          -6.16440125203355   -2.36208444642894   -1.67960246626831
C          -5.69340179786010   -1.08219080715034   -2.16827618965030
C          -4.57545603917849   -0.41279291449583   -1.74445719870191
C          -4.16273357885865    0.82984618926363   -2.26817093498878
N          -3.79423161725179    1.84233609040660   -2.66338398477696
C          -3.65188762518457   -0.92116030082098   -0.80536077064516
N          -2.83633937189957   -1.31532104312652   -0.10014639882932
C          -5.81237125822681   -2.92551226540940   -0.47591612659514
C          -6.15434017259911   -4.17000728333697    0.05880541585923
S          -6.97177815570667   -5.43229583423332   -0.80962778097963
C          -6.75905231287260   -6.56419746989800    0.47259584987964
C          -6.04235891975186   -6.00363287897812    1.55087291189114
C          -5.76082420319996   -4.62529023538658    1.34481810921006
C          -5.16729132606287   -3.88301426012078    2.39437490997358
C          -5.02878899339163   -2.47601659230343    2.37336926675201
N          -4.94707309711028   -1.33445448503135    2.45309488950272
C          -4.76515912144662   -4.53715561429926    3.54907185877396
C          -4.89168048646683   -5.91725109334446    3.67391123440121
C          -5.52269850503813   -6.66168212021329    2.69193157094410
C          -5.50591113662738   -8.06845115791441    2.82744888357280
N          -5.37985210930809   -9.19907084251131    2.97306955082193
C          -7.43071815124158   -7.81334946403493    0.49267420240529
N          -7.71039918781699   -8.59908639391231   -0.59823089862759
C          -7.29889854627207   -8.39670282077563   -1.96741902806507
C          -8.39786625735987   -7.74471891246225   -2.80201554161963
C          -8.44628024223464   -9.74877436785902   -0.23818651428133
O          -8.79201660969497  -10.60378547694603   -1.02396344324794
C          -8.63531237236124   -9.60831295152514    1.18669330345589
C          -8.00720493867443   -8.41776314462708    1.60891247546545
C          -8.30682264537491   -8.24692929891867    3.01694407148737
O          -8.03534120972801   -7.36160437370668    3.80231396620912
N          -9.07005159490894   -9.38116223961907    3.35820634265649
C          -9.45726166309392   -9.60362110042487    4.72945123642848
C          -8.52914117168445  -10.60429320712778    5.41354731114234
C          -9.26944921306453  -10.19951709172638    2.27532150312370
C         -10.01943724748939  -11.39460779848489    2.12928667118026
C         -10.72027540906194  -12.12501035851456    3.02703580562165
C         -11.50384853116377  -13.25542751752084    2.63557891216368
S         -11.70890530994056  -14.56505835482895    3.74831774117801
C         -12.55483119349648  -15.50981870991950    2.56736513816112
C         -12.74679332973611  -14.79466321867729    1.40173555941412
C         -12.16233482261159  -13.50806466347586    1.44575441681698
C         -12.39378151537717  -12.48652394950536    0.37265304914195
N         -12.64556223017171  -11.14216106477734    0.96744883494543
O         -13.31716551728266  -11.09943665238201    1.96829260620040
O         -12.21406113882223  -10.18928150804431    0.37253117379541
C         -13.66022695538174  -12.83171912267374   -0.41926034097466
C         -13.55935111097223  -14.26313321333914   -0.91952416376783
C         -13.60641679393641  -15.24870621256247    0.25104635815095
N         -13.13764843632040  -16.55545125163614   -0.26679544484099
O         -12.04103034154375  -16.59359358737756   -0.76948774937698
O         -13.87265653268054  -17.50742862783529   -0.14166216471645
C         -13.00438360204291  -16.81618983921074    2.98157330183541
C         -12.75499953659528  -18.04334778702178    2.48485847204255
C         -13.58525558653377  -19.18703031485729    2.99326443328688
O         -14.30839499038839  -19.16020228933450    3.95874346991810
C         -13.35905972853929  -20.28405318991433    2.04120668693104
C         -13.98919876883709  -21.49388020992270    1.96294811466235
C         -13.64830160180648  -22.37812164246019    0.91639130995662
C         -12.66273619528139  -21.98720099346116   -0.03702956636977
C         -12.34056483018241  -22.86705010095955   -1.09033765233307
C         -12.96477820570695  -24.07828029489748   -1.19106067568349
C         -13.93709934834283  -24.46530460094209   -0.24593260739700
C         -14.27225229068580  -23.63461687015439    0.78612271236139
F         -14.53262426841298  -25.65824424698937   -0.37031415486311
F         -12.65876714916022  -24.91277784679541   -2.19203464941441
C         -12.02155208609741  -20.73369031365809    0.07393009230028
C         -12.35879916429519  -19.89742783982368    1.10499691333325
C         -11.87430196140514  -18.56536388867914    1.44804626425767
C         -10.71576784989546  -18.00497501798373    0.98766278550217
C         -10.18882411329808  -16.76736081308804    1.41259243035379
N          -9.70169269595247  -15.77845472039181    1.73008950024403
C          -9.84816715629294  -18.64150974785696    0.06996875135108
N          -9.10116800229264  -19.12044288368462   -0.65613045749860
H          -6.96492350656651    2.51893272507042   -5.70506758626986
H         -10.01993416899668   -1.26926853815570   -6.64562551971625
H          -5.95635462012222    1.28043871239927   -3.86019528770247
H          -9.01878482582413   -2.55477158892825   -4.75685483472871
H          -5.18187304814427   -2.32384232310374    0.16535646349432
H          -4.32362651515846   -3.96389813208424    4.35022445502467
H          -4.50147911640584   -6.41573701419957    4.54773612173404
H          -7.08347879968828   -9.38935786141002   -2.37497692148536
H          -6.38584039871153   -7.79758352917157   -1.98520702863515
H          -9.29713704865016   -8.35379433785600   -2.75947090468994
H          -8.07243486172421   -7.67253821136776   -3.83575097558050
H          -8.62905471254873   -6.74519646893268   -2.44282436582575
H         -10.50092152702934   -9.92599389721270    4.76597962513438
H          -9.37472474797205   -8.63159837343547    5.22478231962196
H          -8.54140920010068  -11.56529460090467    4.90462646214637
H          -8.83474674613686  -10.74659396103753    6.44646271188320
H          -7.50992332690640  -10.22583602042594    5.39861209366843
H          -9.98728862979576  -11.74003616667695    1.10447719800124
H         -10.68820756399843  -11.92444168476318    4.08615928844609
H         -11.54336142293691  -12.38514826560288   -0.31026622257251
H         -13.76312073075472  -12.14774711217273   -1.26258564902283
H         -14.53381256487353  -12.72265683230479    0.22897709931165
H         -12.61240779295319  -14.39592208272135   -1.44914887496716
H         -14.37673051333382  -14.47903613886921   -1.60920495567268
H         -14.63411307784387  -15.41311971278602    0.59679911446679
H         -13.64219172936304  -16.81544665615356    3.86420781805852
H         -14.74394640000222  -21.76721426344588    2.68447024674146
H         -11.59724226081397  -22.58699581202692   -1.82021664213411
H         -15.01923276734682  -23.94526729481134    1.49965531508409
H         -11.29376892640101  -20.45474692938804   -0.67070390342402
