116
 SCF done       -235.896042599064          0.000916187297
C           7.06882721717504   -0.55186646502506    2.49049384326368
C           8.40831519967681   -0.80698391738591    2.58248956801572
F           9.28811457964890    0.20147313633691    2.56659378694783
C           8.88124140783460   -2.13056826419731    2.69522757579132
F          10.19895037775410   -2.34982439135919    2.78337739039159
C           8.00714550436495   -3.18105840979181    2.71441737847313
C           6.62079539803088   -2.95047163678523    2.62130981443241
C           6.14095007815430   -1.61289966676191    2.50822595522522
C           4.75384320348783   -1.35714242184656    2.41710748197417
C           3.87215973238562   -2.40640790602275    2.44295877969734
C           4.36147602150925   -3.73815495336239    2.55156266161618
C           5.69544778963472   -4.01699825942879    2.63621276972937
C           3.22986682825489   -4.68264467107444    2.53930815334367
O           3.29505640156275   -5.89157592165077    2.52345917738207
C           2.00637038359371   -3.83971094662815    2.44211137083818
C           2.41404727821447   -2.44716785776257    2.38444469120077
C           1.58545939648743   -1.35695255351968    2.35644884981645
C           0.17499887560200   -1.40939232055579    2.38338487469907
N          -0.97169752672276   -1.37206341045243    2.41705579137131
C           2.03937820865913   -0.02088226571284    2.32126452165122
N           2.34841904910301    1.08383702351929    2.29406003186233
C           0.74913053453380   -4.33817200837697    2.27210930204044
C           0.34572038555121   -5.68371103141876    2.48520318626629
C          -0.68356553203463   -6.31761042700079    1.82444684209421
C          -0.80037357442274   -7.65472799031237    2.31368826086239
C           0.22437441409472   -7.79736272772074    3.35898773008895
C           0.90019297992453   -6.62309112141191    3.45621177113258
C           0.53188426724798   -8.95121665597199    4.09393243886470
N           0.84861418228204   -9.87898339989705    4.69114910942654
C          -1.69778090661753   -8.61911544682482    1.91312984046880
C          -1.89699582785256   -9.89838522423887    2.49632943561351
C          -2.85020359221119  -10.59106357916788    1.77139229449692
C          -3.29322511998508   -9.72477673197016    0.68652666906002
C          -2.63251565324009   -8.54061960826225    0.77663939173695
C          -2.80356597091806   -7.46223444614258   -0.09907605611032
N          -2.96608104717654   -6.59873591094678   -0.83858449296755
C          -3.26648483542139  -11.90438899127511    2.11153043751214
N          -3.89165359913134  -12.82734806507633    1.30904834888300
C          -4.29245266506598  -12.68556700834821   -0.07089558373564
C          -5.73044769267046  -12.18581910357403   -0.18998965187174
C          -4.08286397170909  -14.05876293803868    1.97085920063981
O          -4.57625543608946  -15.03697910396476    1.44940029058285
C          -3.55277280124557  -13.83150021792329    3.29540082714896
C          -3.05169879569330  -12.51773378283981    3.35279069770201
C          -2.54234891672046  -12.30799892879586    4.69459325226276
O          -2.07555866899568  -11.33997167467706    5.24709781816602
N          -2.71406982551326  -13.56081256550375    5.34037091679779
C          -2.35200512330630  -13.69144531158522    6.73354016446951
C          -3.57483576982838  -13.76542483760764    7.64177735855416
C          -3.31949178351197  -14.46931859024234    4.51824508073556
C          -3.64160789496678  -15.83940898350897    4.71450311020451
C          -3.26012172408769  -16.66734736572130    5.71599038163697
C          -3.56887943347789  -18.06232559445628    5.75555644071559
C          -3.56847681579471  -18.80300907811667    6.95002864356601
C          -3.25469371680159  -18.30448207739551    8.25476918679758
O          -2.99021058480918  -17.15791161259752    8.54854121904295
C          -3.24942445333400  -19.37752354286279    9.38270225599952
F          -2.37645896266893  -20.36732026589622    9.12584975816910
F          -2.91610487985920  -18.84944155899753   10.55447682387948
F          -4.45500163201192  -19.95381287901035    9.52993234642238
S          -4.01538421772127  -20.46018712565515    6.67775421947954
C          -4.19208874761698  -20.17168241020530    5.01454079482001
C          -3.92339632189479  -18.87616084164839    4.63557727161105
C          -3.91166885030066  -18.46309490517286    3.24871700745226
C          -4.77789969724551  -18.91430542135441    2.32040516327722
C          -5.95073533776822  -19.66892458200992    2.62237934380894
C          -6.66915998779370  -20.44957635570481    1.77692920547423
C          -8.06674888520332  -20.84112161426565    2.11254416224113
O          -8.60247004797505  -20.74662668577917    3.19148235720553
C          -8.64750422003511  -21.31762089465624    0.84111327266854
C          -9.93071815719048  -21.70157475071102    0.57683036898027
C         -10.26842389096995  -22.11767782563456   -0.73026609470265
C          -9.26608227264962  -22.12330138543887   -1.74409721965055
C          -9.61047786276171  -22.54058042447478   -3.04564207282437
C         -10.88826639239720  -22.93546097874875   -3.32683547998349
C         -11.87887182018651  -22.92882905895453   -2.32344217529837
C         -11.57668326594666  -22.52870497303768   -1.05201285534214
F         -13.12253106114589  -23.31908594283579   -2.62833300495784
F         -11.21284676686392  -23.33379030703851   -4.56251886615800
C          -7.94475497704922  -21.72302987014804   -1.44133008017683
C          -7.63800869020200  -21.33098189338692   -0.16528976301138
C          -6.37341423888113  -20.92833607097075    0.44191615136689
C          -5.12290151439154  -21.16669677262130   -0.06279403072997
C          -3.95370236602866  -21.06987717604677    0.72074480456839
N          -3.00167661038749  -21.07504850633690    1.36160906001699
C          -4.88159915990198  -21.65724141333494   -1.36304586322932
N          -4.64180203863949  -22.03607796110077   -2.41901510068683
H           6.72433987021137    0.46697803171472    2.40586549281659
H           8.38424637346313   -4.18803467163484    2.80097019538651
H           4.42434329963136   -0.33480115794745    2.32702615749741
H           6.03780834603465   -5.03750148964410    2.71697233698507
H          -0.02982074433244   -3.67687398068070    1.91165363035930
H          -1.29118827287368   -5.89118157710319    1.04960897120434
H           1.68103281221907   -6.40292281090965    4.15700955638250
H          -1.38959841135317  -10.25579225618259    3.36989141470070
H          -4.04837851182300   -9.95078896245112   -0.04097206864820
H          -4.22482227717787  -13.68339120295883   -0.51505423899946
H          -3.59019349098598  -12.02569623912289   -0.58407557760111
H          -6.40921966423190  -12.91824527741181    0.23980151690345
H          -5.98783144123280  -12.04597848095932   -1.23630921167711
H          -5.86715215008814  -11.24360600480318    0.33651920029517
H          -1.77363543139298  -12.79285879398772    6.96863247093233
H          -1.70574319935997  -14.56106114693397    6.87107155609316
H          -4.15823016114759  -12.85150496080789    7.55879597768329
H          -3.25158517773182  -13.88282344752818    8.67149357649409
H          -4.20869533303960  -14.61039072119764    7.38530133145735
H          -4.25453158183282  -16.23089319678889    3.91190180832958
H          -2.71612833701047  -16.29630747670324    6.56947392299225
H          -4.42585536743375  -20.98622139946809    4.35608268259935
H          -3.10400675696695  -17.81144135186356    2.94754440665208
H          -4.61936179202826  -18.63545000087834    1.28762210380415
H          -6.37725197352130  -19.54248363430055    3.61301896457503
H         -10.67778826120941  -21.69091766088112    1.35581980449978
H          -8.86425438785764  -22.55483952231939   -3.82461986373586
H         -12.34561240294643  -22.52994615025186   -0.29539783502550
H          -7.20677313605775  -21.73082184053033   -2.22783837411152
