117
 SCF done       -236.487219508765          0.000611506714
C          -6.63226834359781   -3.44041823883421   -9.02346627470344
C          -5.66230702674147   -4.32480215948915   -9.40469798530870
F          -4.80026342351927   -4.00226813310202  -10.37464256704833
C          -5.55766482260954   -5.58613800791770   -8.78287951251792
F          -4.59955919778545   -6.43378427914536   -9.17607666159466
C          -6.42454666253943   -5.94499502178117   -7.78903066052156
C          -7.43604870888591   -5.05640130821142   -7.37493055458988
C          -7.54160048110113   -3.78044999234793   -8.00187453520256
C          -8.54703766259537   -2.87225079360578   -7.60082009840793
C          -9.41924543810212   -3.23061698466946   -6.60711544897089
C          -9.31609714604969   -4.51075169449733   -5.99145033215472
C          -8.35088004651734   -5.40589987883630   -6.35745848572306
C         -10.38512378671736   -4.66877375574887   -4.98781177216420
O         -10.60564937631918   -5.65401918230174   -4.31279723775439
C         -11.17614492531832   -3.41151139531970   -5.05924425391041
C         -10.52330100261435   -2.50854990296958   -5.99043229062810
C         -10.82604231922758   -1.18584343802528   -6.15910942288500
C         -11.79714607603223   -0.50411813022144   -5.39289607336780
N         -12.53201879546834    0.10227190824119   -4.75365232228691
C         -10.15720914896681   -0.33210404682693   -7.06204589997507
N          -9.64808085810101    0.39624706897525   -7.78733285441547
C         -12.41216626830878   -3.25290200513097   -4.51654692364413
C         -12.97393288245577   -4.10914338400922   -3.52926261694383
C         -14.21518446361222   -4.71670189197396   -3.55850924045100
N         -15.16092508455355   -4.57785963353195   -4.59437991770299
O         -16.25291083615772   -5.08474572028035   -4.43554954276914
O         -14.82185792346647   -3.94955960130916   -5.58523456577515
C         -14.35476710813532   -5.58809933279644   -2.42339634264910
C         -13.19279662533840   -5.55957663430557   -1.72050664006738
C         -12.29099122201835   -4.62778784561473   -2.34274229633677
C         -11.08987899454051   -4.16666142841058   -1.85212933959073
C         -10.54340363044224   -2.86059465245174   -2.01451542469387
C          -9.46830877673236   -2.74359610617658   -1.18842272261001
C          -9.23307106229553   -3.99513058522817   -0.51962025644484
N          -8.13027604986450   -4.13369956162323    0.33765810935414
O          -7.25918108937192   -3.28460793959184    0.25998056192902
O          -8.09155879525007   -5.07302657485024    1.11966975260918
C         -10.19129404965255   -4.91954924335654   -0.93983965087758
C         -10.27115094369170   -6.32568325979122   -0.91675482772660
C          -9.57455210193036   -7.18095213050489   -0.10534479753316
C          -9.50926243335015   -8.58645519418579   -0.18311726040552
S          -8.74057527132489   -9.38334600640244    1.16597220675193
C          -8.88998616248714  -10.93698416955393    0.41905924575514
C          -9.47113421921262  -10.82363598154851   -0.84422887788678
C          -9.85451746367774   -9.51897912166558   -1.17027195063002
C         -10.59278866578326   -9.17724966073673   -2.43922795818774
C         -11.92933253032934   -8.75964293717870   -2.06395296666128
N         -13.00001172252430   -8.50867786079048   -1.75410239281117
C         -10.74709532109195  -10.37200491033462   -3.40420926938108
C          -9.60359569330456  -11.36226070473653   -3.25855846769262
C          -9.61380854658945  -11.94908669804826   -1.83628285070535
C          -8.54141254707497  -12.91595737843793   -1.74529434564047
N          -7.69493664501700  -13.68377957193383   -1.73622919619671
C          -8.49037676270045  -12.12452527446305    1.09361316844538
C          -7.85186944845984  -12.12482583411237    2.28268584838659
C          -7.43653173050609  -13.28652225989231    3.02768631208209
C          -6.89189852473900  -13.10627495040860    4.30027419502684
C          -6.49809267754953  -14.19028997457115    5.06517893197236
N          -5.99204301269360  -13.93764035392917    6.39247752778454
O          -5.74190945123276  -12.78962198259581    6.68498921851855
O          -5.85171192770057  -14.88836912920267    7.13174398818106
C          -6.62270851661719  -15.50694328803453    4.59937154507089
C          -7.15294756615720  -15.67485211646833    3.31500341247811
C          -7.54841643952735  -14.60120637553031    2.54917971153691
C          -6.17057040057936  -16.65721633034731    5.37164986080521
C          -6.92345213037251  -17.73523279492179    5.67473290069624
C          -8.30829072745733  -17.83264926094659    5.36063573960568
C          -9.17064905636043  -18.85724267066598    5.58600604901377
C         -10.45330370655472  -18.86803594527156    4.82261379108810
O         -10.92926130451220  -17.94170377285969    4.20709632140308
C         -10.95435033376183  -20.25085253901349    4.91770388761063
C         -12.03537095698656  -20.81508136229698    4.30246492513782
C         -12.30543740155036  -22.18569159910191    4.50880276337202
C         -11.43955214376068  -22.94969571957222    5.34448279527811
C         -11.70766406642028  -24.31979479323808    5.53897007290647
C         -12.78609099038062  -24.90283482229358    4.93520394051725
C         -13.64305126948788  -24.14564288115427    4.11025847834314
C         -13.40911374290151  -22.81564685228601    3.90075852287930
F         -14.69126937296248  -24.74383131255226    3.53025623030847
F         -13.03996720392566  -26.20368956061180    5.12099943198849
C         -10.33146999871389  -22.33699602493122    5.97243182088717
C         -10.09702129814443  -21.00259759225890    5.77114319514100
C          -9.07514234656814  -20.10842324993132    6.31530493323164
C          -8.34240596449053  -20.36039950944843    7.44177272177583
C          -7.55999552908667  -19.40979254254912    8.13441755976845
N          -6.94905569493643  -18.68238702028324    8.77682817382563
C          -8.36306116480230  -21.59550558782290    8.12678100945939
N          -8.32773599668418  -22.58238397172983    8.71098336871005
H          -6.69793565000081   -2.47881708126268   -9.50799593211436
H          -6.32940105357171   -6.91413930257172   -7.32491124695528
H          -8.60920446370743   -1.91631016997026   -8.09547672231623
H          -8.28519069732011   -6.37107851433283   -5.87844888226391
H         -13.06226504477646   -2.47100818925630   -4.89405820732276
H         -15.23740735344700   -6.15924410031127   -2.21018427083748
H         -13.00871878880170   -6.05023353889794   -0.78498396594934
H         -10.99420151298239   -2.07297162812352   -2.58713609795312
H          -8.86426636770356   -1.87093241586134   -1.02229818754125
H         -10.96384969843137   -6.72767409282684   -1.63912983045613
H          -8.99742223703827   -6.75174977953468    0.70470367071029
H         -10.09129601912898   -8.34061744822417   -2.94115590649159
H         -10.79492170098405   -9.99731169613603   -4.42714021098817
H         -11.69004404225904  -10.88627852578506   -3.19794271502791
H          -8.64538934387265  -10.86743186017899   -3.43557926866622
H          -9.71189209652845  -12.16583962619600   -3.98875576442099
H         -10.56004324927215  -12.48285804225556   -1.66502873987196
H          -8.73934838337312  -13.05568062104848    0.60790950744416
H          -7.62573413598629  -11.17196026949306    2.74554490328235
H          -6.78232362322180  -12.11628160426380    4.71878717291909
H          -7.22735860544481  -16.67380173824651    2.91278157697324
H          -7.93753135362723  -14.78348234940501    1.56024951536311
H          -5.14136111702969  -16.63622953546607    5.70441785383973
H          -6.45468998628990  -18.55266073048094    6.19916723740932
H          -8.73792800694794  -17.01172559426874    4.79524315397679
H         -12.67524285938269  -20.22264697407942    3.66633735220174
H         -11.06445440655891  -24.91259150756340    6.17041138346492
H         -14.07433249377425  -22.25035712140932    3.26700168406568
H          -9.68972647004408  -22.94304159396767    6.59138459464847
