129
 SCF done       -254.844417163841          0.011383264585
C          -2.77765734917876   -1.87828072530944   -5.18089872434263
C          -2.18939245469533   -2.20488399712412   -6.37039858632494
F          -1.51157086130797   -1.28081417762818   -7.06515496678517
C          -2.28659808995368   -3.51393948492678   -6.88239705418055
F          -1.70226788089357   -3.80800650291024   -8.05379232945608
C          -2.96854199624538   -4.47883168583788   -6.19633367028634
C          -3.58195663454900   -4.17425244504081   -4.96571004920709
C          -3.48683495022673   -2.85115049694325   -4.44771490893482
C          -4.09010537549424   -2.52670043746414   -3.21104557271568
C          -4.74985372828110   -3.49916233723007   -2.50697571973916
C          -4.83867149855357   -4.81910757078228   -3.03126496391589
C          -4.28531304050035   -5.15468225893453   -4.23156359847978
C          -5.60289539515009   -5.65943711125607   -2.08727479042488
O          -6.15165922365021   -6.71616408591530   -2.33973256420723
C          -5.79183545157354   -4.81589650856642   -0.87723155538714
C          -5.40249794422899   -3.46569319939404   -1.19891454085063
C          -5.53816554536919   -2.35437046595912   -0.40303165578596
C          -6.16125042060148   -2.34694897943571    0.86189460424245
N          -6.65104067734730   -2.27942635014800    1.90204859128178
C          -5.09812206254156   -1.06400628304797   -0.76240520787501
N          -4.76004928270936    0.00920271168014   -0.99833599150992
C          -6.23163668736051   -5.29155057167760    0.32705581250730
C          -6.18619800370493   -6.63808048167241    0.74211991070515
C          -5.33980178978441   -7.69289461837455    0.32847516767175
N          -4.19108964042245   -7.65311351351077   -0.45262380313335
O          -3.79949340331316   -6.58451064762966   -0.92763254189755
O          -3.57965316621771   -8.69975271671777   -0.62608409495940
C          -5.73134227327626   -8.87983857378757    1.00981382204056
C          -6.83176101189891   -8.60463547156141    1.77702671258684
C          -7.11768604003921   -7.21457546633437    1.68657027469426
C          -8.10422612880973   -6.56296643864342    2.45304721661661
C          -7.99217039958324   -5.35596851652316    3.14753393478876
C          -9.06583598976004   -5.23165749672859    4.02296121650119
C          -9.92473000530148   -6.32899523827208    3.86372390066029
N         -11.12504010203288   -6.48106211395653    4.56796525898635
O         -11.41797687412271   -5.61510813924980    5.37622558589246
O         -11.82373194408994   -7.46252889800473    4.34419497585881
C          -9.40196849269555   -7.16562715963865    2.83767903193041
C         -10.11701547277038   -8.13296360458945    2.15449701137788
C          -9.79694225047193   -8.65000427192987    0.90363082932199
C         -10.61292453126757   -9.52224213944333    0.19411108166367
C         -11.93469570165584   -9.91878422734763    0.49110615345298
C         -12.47607123130724  -10.59706581577577   -0.59358799947780
O         -13.72918388934643  -11.05236392740452   -0.52447732151170
C         -14.42615696411599  -11.49880147279855   -1.66651463022062
C         -11.47066221828285  -10.71023515860851   -1.62221854780162
C         -10.32405686182176   -9.99998528171717   -1.15129790007786
C          -9.14631018066879   -9.75509049299463   -1.85256890889400
C          -7.84926899515531   -9.71545854548081   -1.34627801648751
C          -6.97328244696146   -9.49013629107241   -2.41035114478368
O          -5.68590147991999   -9.57702581326692   -2.29634111870964
C          -4.86240361963075   -9.39199686887699   -3.43005829300274
C          -7.77165219795056   -9.24925213618083   -3.61851661560059
C          -9.05809381869917   -9.44765459192054   -3.30614522547920
C         -11.46047335436523  -11.56693762341050   -2.74365161109678
C         -10.32466547187364  -12.02208269602388   -3.35418610719240
C         -10.31715714926481  -12.85549126384818   -4.48793911673141
S         -11.78555600330620  -13.54112296459745   -5.12957236899084
C          -9.20769428413998  -13.25480863365003   -5.23856022177256
C          -7.82256881259153  -12.83513481668128   -4.95409807461152
O          -7.50625575415881  -12.06271020493702   -4.05917758553980
C          -6.86099314583406  -13.44425346889293   -5.85521550186877
C          -5.48644857666461  -13.32560882241855   -5.88180259730994
N          -5.00609810666294  -14.07052060930033   -6.90390211704818
C          -3.62345609706387  -14.14308706906899   -7.30838199829841
C          -3.32349233188839  -13.12286725209133   -8.40621798412682
C          -6.03392165185668  -14.66246456001535   -7.55499678528508
C          -7.21119142112601  -14.30979872202072   -6.93152368199302
C          -8.57411824937449  -14.68069442466832   -7.26252541141836
O          -8.88097433773142  -15.37557750546422   -8.21317650482120
C          -9.55501736909501  -14.10667909861420   -6.31392740884507
C         -10.92062305190450  -14.35425365018201   -6.40553512161367
C         -11.56045353766258  -15.23964247164495   -7.30562510516058
C         -12.86984451904105  -15.29193942178983   -7.66669278830090
C         -13.42940744563796  -16.56224603147099   -8.21547944286092
O         -12.80944159047337  -17.51374895942956   -8.62212114303464
C         -14.89426816765924  -16.42301727807853   -8.07561877623924
C         -15.86709399469406  -17.35251075749775   -8.30607773396537
C         -17.21703690122706  -17.00560444744100   -8.07457782968452
C         -17.53278674214329  -15.69809889306906   -7.60203305951731
C         -18.88120464707481  -15.36155844677091   -7.36698371250198
C         -19.86957040965255  -16.27795730464888   -7.59313991510930
C         -19.55611029253862  -17.57047727174743   -8.06142194393631
C         -18.25811898804534  -17.92780176831856   -8.29760391063480
F         -20.54472974362603  -18.44845425653926   -8.27189529591730
F         -21.14936588584782  -15.95576981079791   -7.36955456055021
C         -16.50443087991523  -14.75455584450490   -7.37736015194456
C         -15.20391000404807  -15.11068073636032   -7.61611441369810
C         -13.96057074561585  -14.35326801192360   -7.50779918906079
C         -13.85847133962749  -12.98705469095854   -7.51032464948050
C         -12.64226122050776  -12.29381148246681   -7.68457713792496
N         -11.68467501324240  -11.68205005952701   -7.85452623486603
C         -14.96309020593367  -12.11908687625669   -7.40158002643031
N         -15.82511639385426  -11.37290266953435   -7.27529263870849
H          -2.69329927322988   -0.87156879527096   -4.80240670427450
H          -3.03171246792067   -5.47657668599545   -6.60191962076068
H          -4.00176196501691   -1.51670766936638   -2.84543833617374
H          -4.36154256619249   -6.15955178159768   -4.61803310512803
H          -6.62899215948214   -4.59119425056931    1.04599852995767
H          -5.20834575303187   -9.81337827283901    0.92474744112619
H          -7.35297601223816   -9.28877383337490    2.42017853146104
H          -7.16181852628208   -4.67679132927042    3.11136234664065
H          -9.22415186283836   -4.43381565872257    4.72458674322224
H         -11.05939972545659   -8.42413392223486    2.60008364512951
H          -8.89967554619741   -8.30577280319432    0.40993063397901
H         -12.48292218502537   -9.69115207001117    1.38435384510832
H         -15.47445954573788  -11.53107051821685   -1.37093662783075
H         -14.11063246265111  -12.50590955393429   -1.95703878534020
H         -14.31071450190419  -10.80928282417726   -2.50638673982891
H          -7.54829363196955   -9.98207972434486   -0.35377808784352
H          -3.84490483264635   -9.57025940169846   -3.08297947443814
H          -4.95725978509877   -8.36221056908300   -3.78660488005997
H          -5.13300892971654  -10.09290480642389   -4.22473034602774
H          -7.37077193461784   -8.95792219129686   -4.56921440888197
H          -9.91463965907070   -9.32273169667591   -3.94030378317528
H         -12.40074688542471  -11.94025037995062   -3.12586963822432
H          -9.34832271909941  -11.77535580568124   -2.96442574586926
H          -4.83847959892912  -12.77511517677198   -5.22856730815108
H          -3.42002431931961  -15.15213647161101   -7.67488079388792
H          -2.99621962598102  -13.95258888523206   -6.43524126812716
H          -3.94445162574379  -13.31220035992592   -9.27750379031017
H          -2.28006315643505  -13.18901646575180   -8.70083792892588
H          -3.52222946281573  -12.11566247412903   -8.04952251134086
H          -5.88359997868895  -15.30110683896298   -8.40250452514694
H         -10.92628142086839  -16.02335296283228   -7.71295757495217
H         -15.61049830302841  -18.33925995649424   -8.66028540467121
H         -19.13907620867119  -14.37586919841945   -7.01209253019789
H         -18.03473837202543  -18.92066046468491   -8.65565142698536
H         -16.76908748582606  -13.77510622930041   -7.01162899552048
