119
 SCF done       -237.230126546425          0.000981283986
C          -4.72767802658166  -18.99239076911270   -8.53894493293076
C          -5.31333666662874  -20.01049174487111   -7.83976664903882
F          -4.92344931497157  -21.27431910728006   -8.03785719748050
C          -6.33297814596115  -19.74428829263345   -6.90245497338408
F          -6.88825416368153  -20.76077610660820   -6.23243771848514
C          -6.75271832095607  -18.46313175074505   -6.67797585116109
C          -6.16902940516661  -17.39258688383064   -7.38326345015392
C          -5.13680958149024  -17.65987915918753   -8.32997275301166
C          -4.53291508755381  -16.60064330158616   -9.04486265198321
C          -4.94715356034348  -15.31393090385854   -8.81922811271042
C          -5.98643113773389  -15.05692328661374   -7.87890234387850
C          -6.58798214203422  -16.06069671967548   -7.17382929013570
C          -6.26897440415926  -13.61446943251684   -7.83990307451372
O          -7.13403212782832  -13.05003333746262   -7.20342378907009
C          -5.33674026794946  -12.99966459938418   -8.82110527878688
C          -4.49762977870311  -14.04492893390081   -9.37925226680625
C          -3.41860196796259  -13.85233839796183  -10.19610825493979
C          -2.94619436123418  -12.57679927347082  -10.57599255673686
N          -2.49914606517832  -11.56179632368620  -10.86980857844417
C          -2.61594020877245  -14.89576820518768  -10.70498997169511
N          -1.93936958504275  -15.70994601630434  -11.14685954451977
C          -5.44495803114229  -11.70245961647451   -9.20338130403887
C          -6.24770066431593  -10.76220535062921   -8.48520062301756
C          -7.28354277512101  -10.00046989879250   -8.98124978617727
N          -7.70951293311136  -10.00079367904115  -10.32376253095606
O          -7.16415891048803  -10.78567790952963  -11.08390356843724
O          -8.58411088400920   -9.21968456411872  -10.64170550712745
C          -7.92269325138204   -9.28770739617710   -7.90399045276174
C          -7.31591905618569   -9.63838682367575   -6.74429244503426
C          -6.22757681997396  -10.54143514388281   -7.03659369422048
C          -5.22840258531683  -10.96280212342993   -6.19015341129210
C          -3.87069937963017  -11.23858930618336   -6.56350109139948
C          -3.11949100824655  -11.32704499140933   -5.43630409142142
C          -3.98353044417337  -11.20238243915723   -4.28854784840694
N          -3.51334549683211  -11.34466052578158   -2.97219717393891
O          -2.32319128358472  -11.56186078490679   -2.82503107034016
O          -4.30677372928466  -11.24546071675223   -2.04818579519423
C          -5.28889333471706  -11.01589556137659   -4.71630168166681
C          -6.45959565365745  -11.05326517470841   -3.91535579652822
C          -7.67243542373284  -11.47060159919365   -4.35015881613597
C          -8.84630406690359  -11.55078637346669   -3.50842737890552
C         -10.07068794126203  -11.58046793147768   -4.06607769537073
C          -8.69103680512645  -11.60210872067051   -2.05873670594291
S          -7.45080567914109  -12.59051358823715   -1.32576985224682
C          -7.97237644825734  -12.18047830486683    0.25993777686755
C          -7.20080883385460  -12.71907000910223    1.40958674477902
C          -9.05783057485061  -11.31784240701701    0.23375272740100
C          -9.44553179023819  -11.00236718564628   -1.10153259245062
C          -9.76524157772457  -10.73218019553549    1.33446868353376
C          -9.73021764917572  -11.13844818106740    2.62253987540936
C         -10.39098877272962  -10.55847702085634    3.74475488091879
S          -9.93555289096894  -11.29266945187065    5.25635399825951
C         -11.31933171060751   -9.53226095992077    3.95388599263262
C         -12.11057783911352   -8.82201492782556    2.92628928909976
O         -11.91945159011509   -8.87346998957331    1.72311758408288
C         -13.22197413060870   -8.06763596120888    3.49107528203629
C         -14.30135357925252   -7.49453329790744    2.85550956381303
N         -15.06161600030303   -6.85831337352687    3.77928136637950
C         -16.35484789238581   -6.26919265595154    3.53695042123082
C         -17.46223631217271   -7.29619571490019    3.76547717431992
C         -14.49390415753309   -6.98502182615277    4.99895139299499
C         -13.34734984817858   -7.73986957779121    4.86936955104596
C         -12.39794489689389   -8.20111565995464    5.85581833139815
O         -12.26984099849472   -7.73763915011610    6.97583193604529
C         -11.59471102563839   -9.33507754364136    5.33820740118537
C         -10.97270622990796  -10.24924355881260    6.17341800916616
C         -11.07873413189234  -10.47758002585936    7.57233880953305
C         -12.11001263826738  -10.24781643997389    8.42435892134538
C         -11.82959054366608  -10.24742416363154    9.88913083416186
O         -10.86742672139299  -10.72289940021420   10.44233310301112
C         -12.94905124222129   -9.49583740169132   10.49097419205833
C         -13.11089470365405   -9.09028917620714   11.78400189401176
C         -14.25678010134300   -8.33927535750110   12.12965461999060
C         -15.21240247406440   -8.01715296012632   11.12206901564610
C         -16.34748597935906   -7.25866943169847   11.47323597824894
C         -16.52763992695445   -6.84350807190030   12.76256587684384
C         -15.58401318185989   -7.16599725089944   13.75855458593068
C         -14.47193877133335   -7.89819501141748   13.44982299756098
F         -15.78741299465532   -6.74681894554488   15.01442872631665
F         -17.60824848240011   -6.12363184679175   13.09254340281380
C         -15.02181907297348   -8.45824544189943    9.79307445350554
C         -13.90780889198541   -9.19173839226510    9.48238353530678
C         -13.47220064049747   -9.79351778982727    8.22804960716470
C         -14.27444695337786  -10.04029576309080    7.14580701511204
C         -13.89232285719076  -10.85552717828224    6.06180798485166
N         -13.65040886910474  -11.54946405990921    5.17976775807873
C         -15.56900521482133   -9.51430245163281    6.97780819778440
N         -16.60112067711205   -9.06503921955833    6.74798792336597
H          -3.94813242662202  -19.21389174481827   -9.25101970723711
H          -7.53399957461905  -18.27602235756002   -5.95806758721525
H          -3.75926921747071  -16.83363051594537   -9.75876185382150
H          -7.37156811583626  -15.84032657829748   -6.46480310683436
H          -4.97521777345160  -11.35287895771257  -10.11513687195407
H          -8.74375453445327   -8.61119476857720   -8.04507132692289
H          -7.51991606213567   -9.24123081862048   -5.76919073376412
H          -3.50411935546719  -11.23413535394809   -7.57217869227011
H          -2.05736193795377  -11.46658744869090   -5.36370940465321
H          -6.31020791733019  -10.80882667402408   -2.87219051517176
H          -7.80263214406187  -11.78164958510119   -5.37701015805115
H         -10.19493844346370  -11.53584524528363   -5.13417320324500
H         -10.96222678927404  -11.63021776295487   -3.46661711145635
H          -6.24666836848330  -13.10985790583071    1.06224755973786
H          -7.74104410260423  -13.53090234498429    1.89945083973990
H          -7.01092062877046  -11.93673956949054    2.14325210440734
H         -10.25859786483609  -10.33310188577709   -1.31946147858348
H         -10.40512978077422   -9.90330995915332    1.06968121161733
H          -9.13201915962956  -11.99687079082425    2.89279592742311
H         -14.56570968375942   -7.51455612603692    1.81697769037676
H         -16.38306944335672   -5.90171017309854    2.50818096506337
H         -16.48292839942229   -5.42245044248150    4.21602516075454
H         -17.36369030643222   -8.12125146249925    3.06413050381082
H         -18.43395974536093   -6.83210967252168    3.62454756882081
H         -17.40575486926648   -7.69690199637072    4.77519628179654
H         -14.93431482454667   -6.56046499938063    5.87916871603625
H         -10.19134851650734  -10.89365921327456    8.04237341476810
H         -12.37407331969872   -9.33677533296604   12.53321667176236
H         -17.08194292893948   -7.00545024566278   10.72470263587397
H         -13.75842309473348   -8.13592669703495   14.22316371824886
H         -15.75554037299967   -8.19462786599818    9.04800351686909
