104
 SCF done       -230.339874912315          0.000850507885
C           2.79593425262332   -1.26825523050951    2.10457648294454
C           2.96640834808117    0.06633444571218    1.86351296434564
F           4.11565311329464    0.66698185486207    2.18962259557644
C           1.93706428615071    0.82663294855002    1.26963706074573
F           2.13363448591121    2.13036598748317    1.04605797118424
C           0.75166455085407    0.24028954456363    0.92391376222823
C           0.54631995892113   -1.13344459550114    1.15803906324202
C           1.58486064056004   -1.90285614985249    1.76123630269640
C           1.39906485238842   -3.28095488042880    2.01306773701209
C           0.20878415937967   -3.87328416066310    1.67666534747617
C          -0.81881949203415   -3.09730804564986    1.06910605568460
C          -0.66638139074942   -1.76515875691939    0.80760852347774
C          -1.98722397674889   -3.94581789148511    0.80351831809843
O          -2.97929580824520   -3.65504037123000    0.17640958198886
C          -1.63542131508246   -5.29622897190758    1.34479113363503
C          -0.26492191687581   -5.24419786769493    1.83321861537889
C           0.43778760265143   -6.27481893512004    2.39535984265425
C           1.75842353836280   -6.15877706004548    2.88353622318798
N           2.83230005641197   -6.13031176663086    3.28541376626456
C          -0.04723414498239   -7.59010403966100    2.56394240135149
N          -0.38252802313373   -8.67466633132107    2.73165245158626
C          -2.43483230445015   -6.38778322119777    1.24008468860789
C          -3.83346605592516   -6.35254765407260    0.95993539418985
O          -4.40485728194225   -7.41465805286741    0.35728560007309
C          -5.73238018130686   -7.21226884286255    0.27834692063802
C          -6.05013980677362   -5.99502151239121    0.85946104924993
C          -4.82541867368044   -5.43715520123045    1.30407436325068
C          -4.67112335207094   -4.25235122369317    2.04580208746859
N          -4.55647090131776   -3.32050252430652    2.70072856428572
C          -7.34892414248702   -5.25715179192786    0.91788113980745
F          -8.29254709032728   -5.79750175410393    0.13387160831800
F          -7.84467246463012   -5.16393254142718    2.15089519888435
F          -7.18949455750689   -3.99590947870883    0.47619227350500
C          -6.57823121066602   -8.20114662658446   -0.33068243217716
N          -6.22947234210803   -8.93223317300783   -1.43776999359389
C          -5.01867400390616   -8.80752595073021   -2.21384192555073
C          -4.99772005570809   -7.52242623595668   -3.03640512408590
C          -7.27629126757663   -9.78947466585868   -1.83544199927789
O          -7.22914582357696  -10.49330075063497   -2.82451995430628
C          -8.29537800221472   -9.58689340350016   -0.83467036843720
C          -7.84100038434365   -8.59679339151003    0.07008294958928
C          -8.84327668378061   -8.46450278290534    1.11447546242526
O          -8.87714301550682   -7.80453507797637    2.12269240989155
N          -9.87067085123079   -9.35900229398538    0.72772058664763
C         -11.03761722199228   -9.51151395552139    1.56488035547200
C         -10.94226024846883  -10.74866470011484    2.45419098450837
C          -9.54399265677445  -10.04215807361331   -0.41355123028369
C         -10.23746251619566  -11.06210060477033   -1.11320145008201
C         -11.43999282348188  -11.65007846557612   -0.88904005199112
C         -11.85978419177628  -12.73560514821265   -1.70356758877838
O         -11.05550735854131  -13.19766003359420   -2.67586657091854
C         -11.62601577176166  -14.27745676166246   -3.24349369793820
C         -12.85828847509578  -14.50990245170182   -2.64652961952093
C         -13.01371141294670  -13.52302423544277   -1.64502760559466
C         -14.08175159584156  -13.32738281259206   -0.75455028060131
N         -14.93417073267363  -13.12332124077592   -0.01754579894406
C         -13.81070168659082  -15.59613485446469   -3.01440002981890
F         -13.20360864082241  -16.79016193055546   -3.09612937323429
F         -14.81637092723220  -15.72220677872667   -2.14997108858333
F         -14.36123042333704  -15.37587044491682   -4.22542952652334
C         -10.95920946352568  -14.95211468117314   -4.30686079133664
C          -9.66696104387744  -14.77097758144811   -4.66767253702056
C          -9.20704056776293  -15.18309917346721   -6.03724615076980
O          -9.75202524617683  -15.96692031980964   -6.77096047771962
C          -8.01017433647202  -14.35770394026651   -6.29151931432598
C          -7.29913945231472  -14.20239748054739   -7.44801831591078
C          -6.22280734508119  -13.28689977515865   -7.47224197972504
C          -5.91472310658247  -12.53133672165444   -6.30194864845116
C          -4.86357672901063  -11.59401937167260   -6.34830806730630
C          -4.14415881714352  -11.42068768088888   -7.49674152122294
C          -4.44154928121057  -12.17555268914375   -8.65004931131617
C          -5.45902659347263  -13.08827880764233   -8.63955713333330
F          -3.71866943704311  -11.98620808868536   -9.76043210716517
F          -3.14677061483622  -10.52766616615406   -7.53670422182560
C          -6.65443204670986  -12.72245406456036   -5.11366067577856
C          -7.67287784004258  -13.63652134150125   -5.10953126945322
C          -8.57077228092463  -14.04955159580758   -4.03962159119129
C          -8.27863656324175  -13.99588084507770   -2.70664858785471
C          -9.07420185032940  -14.59534084722364   -1.70599780342473
N          -9.68890754769066  -15.07859494895942   -0.86645163070773
C          -7.10481955647958  -13.41463442278812   -2.17827494092944
N          -6.17167828023485  -12.97107612434448   -1.68059455666579
H           3.59333036242233   -1.83351945232173    2.56124975871063
H          -0.02646113994047    0.83467236711761    0.47136953195486
H           2.20521727085920   -3.83317013813426    2.46814377740237
H          -1.46638344199405   -1.20399350569831    0.34976311969658
H          -2.03024801589121   -7.38342959358601    1.36974643758695
H          -5.00567355288181   -9.67686008857270   -2.87646322694011
H          -4.15293316922961   -8.85810429112812   -1.54985904752042
H          -5.86387315866783   -7.48124058880524   -3.69285509936382
H          -4.09812470606030   -7.49101278713402   -3.64465935815012
H          -5.00948558672762   -6.64401098800538   -2.39438684194098
H         -11.93315667361763   -9.53187002813640    0.94000259183965
H         -11.07181889202636   -8.61674380851533    2.19326125154814
H         -10.79986565916755  -11.65199863239665    1.86536149260761
H         -11.85270791492933  -10.85078104935948    3.03755723207393
H         -10.10292598097005  -10.64685611785842    3.13739059948685
H          -9.66691257673940  -11.41825518555113   -1.96312700110752
H         -12.11431696665252  -11.37134071594350   -0.09650453089751
H         -11.56101233021327  -15.60708954080547   -4.92438124648436
H          -7.55918496648666  -14.76133847884306   -8.33392457791533
H          -4.62444714886314  -11.01201191436665   -5.47252929818800
H          -5.67546915756896  -13.65457203955924   -9.53184975949097
H          -6.43633523562659  -12.11898583739667   -4.24698629870841
