117
 SCF done       -228.695975889697          0.000140890346
C          -7.77672775413914   -1.15783327404092   -7.35269732132134
C          -6.97282065603413   -0.86568108069699   -8.41856282615825
F          -7.47098670711969   -0.22225706779277   -9.48073071558731
C          -5.61220772640364   -1.23638652002130   -8.41467360423678
F          -4.84931465378284   -0.93754440282532   -9.47301767999056
C          -5.07462566547580   -1.89438817322288   -7.34413857222599
C          -5.87754317791792   -2.21047254610900   -6.23090948831631
C          -7.25302886615619   -1.83516688662995   -6.23279912367748
C          -8.07710945328753   -2.13906211216660   -5.12580135651088
C          -7.54148579084764   -2.79466845870531   -4.04750972513880
C          -6.16831676136663   -3.17069729380195   -4.05734269431613
C          -5.34896611495806   -2.89437698377155   -5.11418941746226
C          -5.83678929591097   -3.87322617637256   -2.80452951645865
O          -4.78693221098934   -4.39434306861085   -2.50970126874879
C          -7.11114520169897   -3.91735537784939   -2.02902060245585
C          -8.13753056055174   -3.22274488393938   -2.78721551111981
C          -9.40791341986021   -2.95014322096713   -2.35929910981400
C         -10.36292057810252   -2.24188231502345   -3.11978480785448
N         -11.17721424469989   -1.67684000667704   -3.69772323076984
C          -9.91669289074571   -3.31860523226850   -1.09485194041329
N         -10.37833152512078   -3.57713371653336   -0.07661957257304
C          -7.26903060868354   -4.68670471060371   -0.92395603797121
C          -6.18707435262101   -5.25238358737215   -0.17315323753475
S          -6.20158066775096   -6.95622879122326    0.14893850514111
C          -4.70289844294787   -6.85286164234308    1.02737037919474
C          -4.28093158655825   -5.53579135363899    1.13456695467163
C          -5.10096931917265   -4.64162324717901    0.42031547169170
C          -4.82314645682366   -3.17364681204126    0.39819270400683
C          -3.33022991841884   -2.91082241647951    0.56950733693695
F          -2.61934773472702   -3.38113001742005   -0.50857589896647
C          -2.80713598396730   -3.59924434384060    1.83337204501022
F          -3.45187144886481   -3.00725697731377    2.89997982032294
C          -3.04448355342999   -5.10759447292154    1.85046074694608
C          -4.06030056146884   -8.03477656822793    1.51451277512135
N          -3.99490731733728   -9.20707771637125    0.80280657172393
C          -4.36341447146869   -9.42928064256478   -0.57721013183366
C          -3.53348125908277   -8.58603851404997   -1.53973768011945
C          -3.32184144355431  -10.21716220014977    1.52015734588447
O          -3.12046325247564  -11.32907057967371    1.07452221227841
C          -2.99028481212926   -9.60133484732961    2.78110768155198
C          -3.43920487224468   -8.25657394786150    2.74225648479598
C          -3.15989562184550   -7.66711158336797    4.03672568983005
O          -3.36380554313944   -6.55474466964572    4.48196450626611
N          -2.53370228680146   -8.68719651498911    4.76183937102291
C          -2.13766880687586   -8.49065669269557    6.13733616198888
C          -3.14778212617535   -9.09170493287788    7.11069797595090
C          -2.43269661688286   -9.85294127267150    4.03782388864570
C          -1.84345114773776  -11.03437801926708    4.53359315092745
C          -1.75496678402194  -12.18415917416941    3.80265582896941
C          -1.14692939436394  -13.36974266678357    4.27241178619739
C          -0.53339837933894  -13.61605217389518    5.48599896878486
C          -0.05378749423412  -14.95157988469026    5.50890098501706
C          -0.41603435700891  -15.54131749283495    4.20145450772305
C          -1.06069733308656  -14.59283364829291    3.47870305127131
C          -0.13086360584941  -16.83982986670897    3.76272804614339
N           0.09700315643621  -17.89489837729919    3.37065265502140
C           0.61388851133279  -15.57793240584712    6.53800648184353
C           1.05246241889287  -16.93282443609299    6.59865006117233
C           1.60501352281043  -17.17445104257284    7.83773439827942
C           1.58213502130940  -15.92687901709620    8.58697552198814
C           1.00208665923277  -14.96701557988041    7.81850336703374
C           0.83821397827399  -13.63065514487904    8.19761234836919
N           0.72093128904847  -12.53705868289960    8.53065900758786
C           2.15253289237429  -18.40580882579929    8.28435538702513
C           2.34004752842969  -18.81589956539205    9.56759724777790
C           3.31323394152752  -19.90220616556034    9.87653725988034
O           3.82462706986097  -20.66219176047458    9.08974639389641
C           3.55660761525885  -19.79518855368829   11.33047992884965
C           4.46045189594704  -20.46936770281780   12.09998148542670
C           4.53993402498058  -20.17818664451744   13.48036401664993
C           3.67999524360946  -19.18731294819857   14.03782372154026
C           3.77129198680417  -18.89558223863954   15.41365670807096
C           4.67193967233660  -19.55790113131235   16.19963015340403
C           5.52078618409609  -20.53886736394835   15.64781648866082
C           5.45688312004160  -20.84388748456911   14.31707959372374
F           6.39476430757304  -21.17065018853206   16.44184451205653
F           4.75756565127633  -19.27955682711539   17.50636965854680
C           2.74765307450767  -18.51105333389404   13.21833782658563
C           2.68378969721042  -18.81499011673721   11.88483032143752
C           1.82065182496657  -18.31028848532913   10.82082320418991
C           0.61368444818297  -17.68702356760854   10.99961906940933
C          -0.31584234065397  -17.46643584431305    9.96034474031690
N          -1.13391063712962  -17.32365183395756    9.16818524575129
C           0.12232918985411  -17.28501269949944   12.25883483936837
N          -0.30372369729979  -16.92477713352818   13.26160250919992
H          -8.81507586431030   -0.86570834652553   -7.37164878700409
H          -4.03217841792366   -2.17157162343057   -7.35621016272160
H          -9.11493829282174   -1.84931578555546   -5.15993232130168
H          -4.31140288097835   -3.19124852483966   -5.09388032233424
H          -8.26446015769155   -4.96381469790165   -0.59748562995387
H          -5.33908454173763   -2.69169455583573    1.23428008600520
H          -5.17040421012324   -2.72195677899409   -0.52929921870606
H          -3.13671415811591   -1.83155068334336    0.62333201385241
H          -1.73989349465835   -3.38476771381675    1.96875457330624
H          -3.11561158813960   -5.40701905182406    2.90357133167869
H          -2.17938108378385   -5.61414643503595    1.41646489494168
H          -5.43108006256703   -9.24342432951143   -0.71759785169242
H          -4.17142927784213  -10.49170256524884   -0.75493581820939
H          -3.72191054518861   -7.52302853640686   -1.40866883392197
H          -3.78434896514339   -8.85409278768130   -2.56190945044315
H          -2.47347454299145   -8.77233648698319   -1.38344165022882
H          -2.08584053160644   -7.40852926207223    6.28511448405676
H          -1.14327549994871   -8.91619183495422    6.29503956996066
H          -4.11919475103363   -8.62231207892327    6.97593664500684
H          -2.81755409019028   -8.92080723556665    8.13115021576740
H          -3.25487227731575  -10.16270811376896    6.95395999038777
H          -1.43938917912127  -11.01043898097461    5.53488105880173
H          -2.16664077232670  -12.20763013863580    2.80224512611279
H          -0.42782284152340  -12.92709863136401    6.29947153438854
H          -1.45269131646871  -14.69487178440004    2.48366238553159
H           0.91327577821603  -17.65955101286659    5.82240512662792
H           2.01221706811536  -15.77970571050490    9.56090636678189
H           2.52858896169528  -19.07436983996265    7.51639522474671
H           5.10749185054002  -21.21372600836743   11.66152175052462
H           3.12667522989042  -18.15012217989675   15.85253567392727
H           6.11349203799234  -21.59689445078888   13.91023488412042
H           2.11361198056567  -17.76055795213332   13.66323307436671
