122
 SCF done       -248.562716150449          0.000450184016
C         -11.50605056312799   -8.81625350227730    7.88595664250957
C         -12.38509715895600   -9.86141871163833    7.94639545211895
F         -13.18840549572061  -10.00494283441274    9.00534513003179
C         -12.45688992168216  -10.80033024975141    6.89648542121520
F         -13.32528321798019  -11.81457567872365    6.98228552858237
C         -11.64886963414979  -10.68009066676542    5.80073720760280
C         -10.73262973121035   -9.61412370878579    5.70928393781516
C         -10.65919116753088   -8.66396537885864    6.76976103230027
C          -9.74929512190245   -7.58469721644816    6.69796310796704
C          -8.94055224748953   -7.45808751486449    5.59922168975283
C          -9.01548153131401   -8.41541662052178    4.54647455144599
C          -9.88378722613449   -9.46949968853730    4.59030846468983
C          -8.03834961226393   -8.07440664754551    3.50180956464676
O          -7.78243072826061   -8.71348369388513    2.49968718510538
C          -7.35286687825713   -6.84965236147725    3.98177954818188
C          -7.94386131195027   -6.45415251953121    5.24691176703990
C          -7.68025731894997   -5.29544643822349    5.92305360964476
C          -6.81302898886972   -4.29149891742837    5.43905465737463
N          -6.15962531927955   -3.42837685794878    5.05914978494516
C          -8.28393981473822   -4.94054980927841    7.14832563484813
N          -8.74282530809622   -4.61598097724559    8.14829106674171
C          -6.23288032843517   -6.36380399168126    3.38509523968760
C          -5.83110958925661   -6.75884519778861    2.07415202762564
C          -4.61170952759711   -7.29523359503599    1.69720037168931
N          -3.54267418409016   -7.54821281631249    2.57329683045669
O          -2.51037575005028   -7.98430626446295    2.10037126771314
O          -3.72144493578687   -7.31731518589840    3.76003712655531
C          -4.65606383319562   -7.66246069066329    0.31021011039892
C          -5.90279511773888   -7.39033625789869   -0.16008705823941
C          -6.68459662991551   -6.80266928306331    0.89316682587746
C          -7.93067971203726   -6.19939342152950    0.78915876747956
C          -8.35237035249176   -5.04612352803770    1.49729810336466
C          -9.50563405658399   -4.56610609516823    0.92264439273244
C          -9.89894810155030   -5.43515312228158   -0.12430236702451
N         -11.07787940276699   -5.26064487500128   -0.86844645028178
O         -11.76205673478867   -4.28718116323547   -0.60959077796083
O         -11.35133278769196   -6.08284624980230   -1.73041290452320
C          -8.97729175005603   -6.50061444728100   -0.20774366510690
C          -9.12888165549499   -7.68279659882415   -0.92239012648323
C          -8.45207217400318   -8.85415999909172   -0.62257878215232
C          -8.54097125031456  -10.03213075624868   -1.33940909880047
S          -9.51403995985882  -10.21983848520065   -2.77173449109790
C          -9.02087049332629  -11.87741015658723   -2.99048220089063
C          -8.08949434027577  -12.26521905490691   -1.98296430183079
C          -7.83468835688075  -11.23822383645881   -1.04359500013008
C          -6.96539054728842  -11.45999812391862    0.02579332930393
C          -6.34161554769397  -12.68667646387350    0.15697671124542
C          -5.39562368230759  -12.94955806040503    1.28161700043915
C          -6.59168232327077  -13.69450928318646   -0.79041415067953
C          -7.45204609448289  -13.50356623679017   -1.84475299713408
C          -9.51026166532113  -12.70238867157321   -3.99039274175112
C         -10.49649176678173  -12.34973669267099   -4.89100294687629
C         -11.05221267579833  -13.15027054495305   -5.89127261906566
C         -10.60702338556139  -14.32651584125446   -6.53757044352991
N          -9.54836507233643  -15.21001852308307   -6.26440302163144
O          -9.19049232608045  -15.93721859399404   -7.17353442659643
O          -9.05258846623352  -15.24449195228292   -5.14513972772410
C         -11.41694727065241  -14.55272967570593   -7.68473805079027
C         -12.36971801542811  -13.57519420635085   -7.77509157612819
C         -12.22828787475998  -12.69645593430686   -6.66668909201434
C         -13.14076837111365  -11.72719557895680   -6.27969767221639
C         -13.42257417883914  -11.30240983321556   -4.94961810061237
C         -14.56400589142378  -10.55644043346503   -4.96511391094677
C         -15.04259945971594  -10.44485804030976   -6.31065757373356
N         -16.21691541310446   -9.70378366892103   -6.56186829143963
O         -16.85674514762869   -9.91920980527833   -7.58058616875129
O         -16.55651215011013   -8.91020149493384   -5.70834159695230
C         -14.16469064665447  -11.11926268756812   -7.16278652292452
C         -13.99808507393379  -11.09922363343812   -8.56577268876164
C         -14.90965421946183  -10.70163673813885   -9.50099570673609
C         -14.63643128558763  -10.68272632721541  -10.88461960462615
C         -15.43670956556340  -10.10314085526046  -11.82584433577346
C         -15.35127760806681  -10.49625100266108  -13.25990808574686
O         -14.45298095232657  -11.10526504604213  -13.79103098117213
C         -16.62584042788694  -10.04239022138786  -13.85223994089163
C         -17.11437734756107  -10.26795573928724  -15.10728456352089
C         -18.38872759707541   -9.76315062018644  -15.44951369040708
C         -19.13693341528399   -9.03436145028588  -14.47916995597794
C         -20.41143595252453   -8.54217010101140  -14.82482113838743
C         -20.91868633231917   -8.76140941160249  -16.07495799714263
C         -20.17748252465450   -9.48137501143312  -17.03410982558783
C         -18.93868772410477   -9.97185517489486  -16.72945561089056
F         -20.70018469939465   -9.68238292998036  -18.25040639446762
F         -22.12924007943373   -8.29361232483658  -16.40193632240581
C         -18.60274418016240   -8.80920971923265  -13.18954233678959
C         -17.36291252788266   -9.30148935961512  -12.88239749231872
C         -16.56118101227884   -9.20661773114451  -11.66492665828756
C         -16.71782433876979   -8.28126419693079  -10.66705718189904
C         -15.74691221560044   -8.03687305429773   -9.67079082004668
N         -14.94804256671939   -7.76728694744455   -8.89280677082264
C         -17.80390344951292   -7.38241332707523  -10.60562891992107
N         -18.67471059244858   -6.64000989621385  -10.52714738157318
H         -11.46515674334902   -8.10639896242202    8.69726128989829
H         -11.71662417095934  -11.40684297986222    5.00641390596921
H          -9.71094916795683   -6.88528985276988    7.51754159538283
H          -9.92450771714004  -10.18249942093601    3.78064196805741
H          -5.56666191910031   -5.70064806816328    3.92410298999443
H          -3.82526643150523   -8.08328442114539   -0.22271687177705
H          -6.23799772874243   -7.49096133081052   -1.17432564807014
H          -7.78702439224387   -4.55977110848548    2.26977329484370
H         -10.04285740514742   -3.67725373142012    1.19655832042649
H          -9.88147529297680   -7.69270167430481   -1.70274194428401
H          -7.84094944112794   -8.87788803080661    0.26764558431370
H          -6.78687242330040  -10.68172986603601    0.75152486646218
H          -5.62942124205246  -13.89622435876054    1.76512078754010
H          -5.43330736975962  -12.15381908420680    2.02038318190409
H          -4.37672993650850  -13.01837040581644    0.90082368361402
H          -6.09171667300714  -14.64493855844295   -0.67908450837714
H          -7.62944332604747  -14.29348744465341   -2.55717113163106
H          -9.11383311271084  -13.70677687001461   -4.02424589707034
H         -10.90379924751350  -11.34895941893926   -4.81124126177256
H         -11.28334628784783  -15.38944119220800   -8.34484176428373
H         -13.17095729153842  -13.55229906766989   -8.48734666245276
H         -12.90620151573266  -11.62863305512511   -4.06827970881480
H         -15.06867260056121  -10.11876474335014   -4.12427458999836
H         -13.01575955608547  -11.39070658551202   -8.91732483815169
H         -15.90588807547800  -10.43073255421948   -9.18411363597977
H         -13.77548690676977  -11.22858749371527  -11.25650084364089
H         -16.53793226195794  -10.82689275259229  -15.82867207579777
H         -20.99072654383204   -7.98703387227819  -14.10368569801038
H         -18.38447071833496  -10.52099138780913  -17.47444108923606
H         -19.19238151743761   -8.26296547385795  -12.47070912826072
