109
 SCF done       -229.969429868003          0.006121895191
C          -4.05329416539560    1.43880500338728   -4.10065186138438
C          -4.09766731643824    1.42852583130043   -5.46715952537964
F          -4.43410907320018    2.53591486698822   -6.13767192778196
C          -3.78836730124583    0.25551326510566   -6.18854968829635
F          -3.83550965512131    0.27951308561402   -7.52572557741670
C          -3.44250247450487   -0.89269351119593   -5.53258765063275
C          -3.38628746515690   -0.91358365082339   -4.12386361670198
C          -3.69466934961862    0.27298813666252   -3.39344581576367
C          -3.63233494035956    0.27783294473764   -1.98130256428398
C          -3.26837157062255   -0.86629066089124   -1.31801623242742
C          -2.96613360022612   -2.04753109897487   -2.05473270431597
C          -3.02187081343072   -2.08261617302279   -3.42168959873418
C          -2.58461364674209   -3.12623652536148   -1.13160720301015
O          -2.25157004787497   -4.25172634860397   -1.42581793168659
C          -2.60858623471226   -2.50740549130316    0.23559345185912
C          -3.10139896824912   -1.13992671676535    0.10422529974429
C          -3.41328766165735   -0.29613791281683    1.13206242530382
C          -3.28404152691634   -0.60765399266783    2.50485728847819
N          -3.21620976523473   -0.78595835158014    3.63446364290276
C          -3.93254424714394    1.00597702799956    0.95368197925161
N          -4.34983912055054    2.07088807489343    0.87329631146494
C          -2.10690374544205   -3.08779735810079    1.34334802394746
C          -1.70374793845836   -4.46936870641925    1.41385204507848
C          -2.33551783345070   -5.63606493191780    1.01475198966591
C          -3.68501292049942   -5.76786756975396    0.46297004422173
O          -4.46651425961025   -4.86124331802112    0.33237290367653
O          -3.98925432333512   -7.03441444944062    0.14245048208168
C          -1.40780520737036   -6.65327693591689    1.39346812763091
N          -0.35291106446049   -6.11258123815002    1.94811545468295
O          -0.53594187858117   -4.78153370081017    1.97960535720076
C          -1.53419629277930   -8.08684476483384    1.21975131966162
C          -1.74341940309823   -8.99668257412223    2.21496149447927
N          -1.90175899913585   -8.69639814478450    3.59215040177796
O          -2.16196495453517   -7.54529556624747    3.88538219481099
O          -1.78120756526498   -9.61123655824773    4.37853350232037
C          -1.83086644889919  -10.33198306137977    1.64889058050519
C          -1.76989208613945  -10.21604759046037    0.30487220272823
C          -1.60725884239365   -8.82094041707575   -0.04838359189626
C          -1.59467989245735   -8.21655110148140   -1.28241665808844
C          -0.97839270492277   -6.96330259507315   -1.59319607546253
C          -1.10103542418392   -6.73624882666242   -2.92502039366019
C          -1.84725534251695   -7.80848443508943   -3.52713430460041
N          -2.18577304500815   -7.73322232103404   -4.89261726318258
O          -2.04131759657832   -6.65111538961934   -5.43318095857296
O          -2.59126496363480   -8.72878896571510   -5.47037342675317
C          -2.18077872166226   -8.74477047657657   -2.54619362171258
C          -3.02649961699198   -9.86797781733841   -2.50765749872405
C          -3.56837350744354  -10.59889060429880   -3.53394044457065
C          -4.28806023750165  -11.79025763152250   -3.29719983769987
C          -4.42600845255353  -12.49042804996210   -2.10835410265871
C          -5.14756741966031  -13.68851546779996   -2.34568451919775
C          -5.49321001319049  -13.67919072909648   -3.78318966437103
C          -4.96490768962488  -12.55852057535960   -4.33661345926963
C          -6.22711793265014  -14.65821428485461   -4.46402516066862
N          -6.82724321922892  -15.45066927975855   -5.03863290254471
C          -5.41210523722870  -14.68679246406133   -1.43345638780260
C          -6.09644178422090  -15.91569482175368   -1.64710275952152
C          -6.04351452723340  -16.67539396261830   -0.49635844952309
C          -5.34919804906637  -15.89301143594542    0.52059711051693
C          -4.97461219191952  -14.70587893351164   -0.02081179059193
C          -4.27834619036059  -13.70039535473735    0.65756932779124
N          -3.69315566207316  -12.89026036705653    1.22509819154936
C          -6.59642322738107  -17.97567397694840   -0.33910700565494
C          -6.26040898698061  -18.88332556209828    0.61626076545303
C          -5.12125706374333  -18.80346250214003    1.45927315054379
C          -4.87790247944297  -19.52256742160332    2.58890759643859
C          -3.48771424821115  -19.63128015534732    3.11657402454366
O          -2.53960801473111  -18.95959053058379    2.78431569181215
C          -3.52518076897224  -20.75876576109911    4.06785673716500
C          -2.49507599766660  -21.33179501135734    4.75682410184858
C          -2.76164853438069  -22.43176312456516    5.60192464547067
C          -4.09524351328520  -22.92466929875999    5.70946224343373
C          -4.35093712010090  -24.03128024291890    6.54389132622659
C          -3.33198093862631  -24.61660279733457    7.24218941698054
C          -2.01453712971592  -24.12437804209258    7.14050732267282
C          -1.73442520489790  -23.05443363970068    6.33750933039740
F          -1.03802259377025  -24.71649330463507    7.83774550139249
F          -3.57678786200490  -25.66739620837531    8.03295375792480
C          -5.14416051697459  -22.30445551123482    4.99281682707482
C          -4.86488634555885  -21.23077557794533    4.18955099278676
C          -5.73367890683213  -20.37463868113024    3.38593823497360
C          -7.09171592106276  -20.25328914026276    3.52013542391090
C          -7.83307155161698  -19.19369194787856    2.95390184902676
N          -8.45239244913855  -18.31231950085867    2.55857903610986
C          -7.87634935552578  -21.09834002309662    4.33265000471817
N          -8.55350156127299  -21.77811602105383    4.96158669298620
H          -4.29393554814953    2.34400800527705   -3.56485125341092
H          -3.20924081771682   -1.78167885591384   -6.09841797828226
H          -3.86353993927557    1.19094801675794   -1.45669689321228
H          -2.78860822623713   -2.99012831371658   -3.95975494422634
H          -1.94559002265569   -2.52083176477227    2.25260084992833
H          -4.90135170518069   -7.07655940703232   -0.18500267042030
H          -1.94426360328253  -11.22737642623355    2.22878370949448
H          -1.72705376272846  -11.03085046466265   -0.39096375415546
H          -0.42071124243008   -6.36333699488033   -0.90412360673417
H          -0.71864394902931   -5.90036442621869   -3.47878300903018
H          -3.26464364167731  -10.19467215194725   -1.50573789877244
H          -3.42274786043284  -10.29995836585722   -4.56184020659405
H          -4.03130142290757  -12.21196706204553   -1.15233605551291
H          -5.02778880841239  -12.25804990451374   -5.36607503498906
H          -6.54303621994810  -16.21342254303357   -2.57573051652055
H          -5.21434860215892  -16.18878188957245    1.54392423259784
H          -7.37218441343297  -18.23829398914613   -1.04636718649459
H          -6.85917139046400  -19.78253959440768    0.68996074559656
H          -4.29064008839045  -18.19249811476694    1.12129173986023
H          -1.49024024092724  -20.95017322898861    4.65832406869654
H          -5.35317827842744  -24.41910808367184    6.63784007524648
H          -0.72179475623269  -22.68894662811673    6.26979878288397
H          -6.14333303891837  -22.69866885785567    5.09117315052604
