107
 SCF done       -236.600427333302          0.000950507888
C          -1.57688925037236    2.84452489580386    2.98838008738135
C          -0.37338392660814    3.49149853049276    3.01793239346939
F          -0.32267050475718    4.82330569561581    2.90524342626319
C           0.82787992883416    2.76729675203196    3.16643340875655
F           1.99093573341648    3.42793335798356    3.19104834507021
C           0.80820646958670    1.40556995549705    3.28306997796455
C          -0.41622914596335    0.70974085754741    3.25460647123577
C          -1.63155560053848    1.44081690545255    3.10581656766758
C          -2.87190281730387    0.76448009170126    3.07606530591837
C          -2.89588022731514   -0.60162245100302    3.18770466156874
C          -1.67765809221892   -1.32413086840870    3.32490465676633
C          -0.46462882120863   -0.69721964536537    3.36391948025914
C          -1.96069226743237   -2.76872947224674    3.39897564535387
O          -1.15410397981274   -3.65227169616119    3.57370463110363
C          -3.43131345827601   -2.89478743463576    3.18909282369527
C          -4.00095652962114   -1.55207043052126    3.19420391456905
C          -5.32792852265408   -1.23283594757547    3.28123041046138
C          -6.38138126229406   -2.16484274019502    3.41380886595878
N          -7.28194033307944   -2.86248265871346    3.55269537348984
C          -5.81701521807914    0.09215047281662    3.30822157368098
N          -6.27129944877500    1.14526642693891    3.32938088861228
C          -4.12748744444359   -4.01959038128915    2.87822428573234
C          -3.70456148738132   -5.37391375637725    2.82559358949249
O          -4.60712404795496   -6.23336478519244    2.27204735566905
C          -4.10328984751047   -7.46921118524784    2.29139674343177
C          -2.83766829602686   -7.42290127206074    2.89858726979006
C          -2.58771725308253   -6.08251192800263    3.23493188617781
N          -1.96323080355331   -8.51190932867884    3.15105509951817
O          -2.35318621638440   -9.62655011939901    2.85644852724390
O          -0.88990559243117   -8.25855495639538    3.64698489112343
C          -4.80839990225624   -8.56070006499420    1.71631970494270
C          -6.00536536145742   -8.40011732273189    1.09901081056303
C          -6.67324609552546   -9.42768101652826    0.37159585613963
C          -7.27626215272121   -9.23588621429144   -0.85980962536460
N          -7.45136543720981   -8.02104525652945   -1.56117194583676
O          -6.98222921421232   -6.99935718537063   -1.09035143405501
O          -8.07936778625905   -8.07295505668032   -2.60069665289703
C          -7.61379687365053  -10.51017088294105   -1.44574399366493
C          -7.28254369920854  -11.48214906578782   -0.56984945070176
C          -6.79818794827529  -10.87458334022388    0.65598897663939
C          -6.69444196690179  -11.48184522844694    1.88179555216331
C          -6.14662648089773  -10.91752493867540    3.09297181215055
C          -5.83074717199707  -11.92124921158409    3.94128821808960
C          -6.25607730355052  -13.17247115881048    3.35923760096403
N          -6.13760135231310  -14.40019315863187    4.04710773931121
O          -6.54746609015535  -15.41242731084505    3.50531548685261
O          -5.62380078847001  -14.36890235340883    5.14802823436678
C          -6.89154707504223  -12.93216873678004    2.15572167682766
C          -7.66035128559486  -13.87854486607191    1.42570195851999
C          -8.81371409355150  -13.57091979638865    0.77791956847059
C          -9.59707721293388  -14.49484801576305    0.03599962079777
S         -11.03677096695261  -13.92947360149355   -0.77130510179565
C         -11.31733450024578  -15.46898764989898   -1.48732864230361
C         -10.32979458660942  -16.39647004806666   -1.09225007392952
C          -9.37461732761365  -15.82825369285779   -0.22827724801220
C         -10.29410994631723  -17.75498816201709   -1.59213242614170
O         -10.99714908845672  -18.23545782846429   -2.45143660786438
C          -9.21889760770531  -18.66880917454491   -0.93379176415276
F          -9.34550985447726  -18.70163799923536    0.40279611082771
F          -9.31783016981053  -19.91827368199486   -1.37290417353661
F          -7.97157788254436  -18.24658920949930   -1.19763317555839
C         -12.36694606398505  -15.69870156506915   -2.40558047492123
C         -13.21994426555903  -14.74993851937024   -2.86618632964527
C         -14.19433046311418  -14.99233592987768   -3.87205787017390
C         -14.17766651833658  -15.90776462320744   -4.87599326326215
C         -15.46398699729994  -16.20285033034125   -5.58608990315114
O         -16.48122817630060  -15.55731555972976   -5.51287258819873
C         -15.22244723452147  -17.45411038264179   -6.32381357924639
C         -16.10660322818675  -18.21738238286152   -7.03230167856825
C         -15.65043746444460  -19.40629794221185   -7.64288427888010
C         -14.28616470789792  -19.79249327798594   -7.49029220055612
C         -13.83967115714952  -20.98584360318347   -8.09311174546852
C         -14.70442882606429  -21.75535579865106   -8.81965329128568
C         -16.05270729288875  -21.37051783264336   -8.97310336320813
C         -16.51740042885059  -20.22177715046674   -8.39654653171080
F         -16.87625433626997  -22.14362466457933   -9.69048982825426
F         -14.27937784227745  -22.88506403663569   -9.39567861086782
C         -13.39413964618246  -18.98189360371679   -6.75261743249879
C         -13.85196729705222  -17.81919845997599   -6.19151969200208
C         -13.15848196817958  -16.78392011201791   -5.42843212447010
C         -11.80611589616698  -16.57697736068660   -5.46529022947701
C         -11.13275299101847  -15.48679316955200   -4.88103444561419
N         -10.52032423845239  -14.62161567116214   -4.43964943776786
C         -10.90522544616283  -17.41069900000970   -6.16524841125911
N         -10.12683343815771  -18.04420454483449   -6.71991070581442
H          -2.48612972617141    3.41416134800102    2.87577306698190
H           1.73560322521840    0.86618203861903    3.39559074260179
H          -3.77274115783311    1.34437611707259    2.95659777701997
H           0.44424343402230   -1.26913511301168    3.47277626262031
H          -5.16314501854145   -3.90996764206194    2.57789672697008
H          -1.70740167201559   -5.69484779205505    3.70603964779165
H          -4.30044002300770   -9.51403489077389    1.74192726717176
H          -6.41128002950509   -7.39992173526996    1.00752501115392
H          -8.02141502907173  -10.61797772552389   -2.43254367293301
H          -7.35197909438045  -12.53572439604396   -0.74412983706421
H          -5.98338006632259   -9.87450524807519    3.26564880302770
H          -5.36408423261534  -11.84975006424833    4.90515818752463
H          -7.34997284813235  -14.91072838979259    1.51201642741053
H          -9.19284488572216  -12.55773013435348    0.81370165746445
H          -8.53669414393550  -16.35838203729769    0.18415268182489
H         -12.45513703649514  -16.71316545638756   -2.76838601862791
H         -13.20000560288741  -13.75731373303824   -2.43322239827002
H         -15.09728974254821  -14.38961572493081   -3.82817390315487
H         -17.13910518401768  -17.91717529536496   -7.12574933400414
H         -12.81071253814432  -21.29249394669842   -7.98853483487508
H         -17.55156744937645  -19.94213614117261   -8.52280919144702
H         -12.37237976050904  -19.30632017937248   -6.63903222460366
