114
 SCF done       -226.645867468872          0.000518292966
C         -11.38128637163516    2.01686055216723  -10.08700652731740
C         -12.28164574404135    2.45292244204198  -11.01758788002380
F         -12.06852417467312    3.60001503695812  -11.67516468023092
C         -13.44367368079770    1.70503495776830  -11.29763028963555
F         -14.30838511993327    2.15814606242579  -12.21469405198452
C         -13.68928500487415    0.53155233055149  -10.64172623337685
C         -12.78138179071111    0.05570650823442   -9.67547410171671
C         -11.60524821670183    0.81045866913280   -9.39241276901529
C         -10.67906783515228    0.35207280679345   -8.42934953087378
C         -10.92164174136325   -0.82530654405731   -7.77018911539032
C         -12.09924154593201   -1.57293934277585   -8.05952601723383
C         -13.01297078606832   -1.15266446399544   -8.98200277918220
C         -12.12486081119957   -2.78503052642915   -7.22182225355265
O         -13.05452753660985   -3.52671852473762   -7.01206756160158
C         -10.78091310775279   -2.82425099476382   -6.56396611296491
C         -10.14455793290316   -1.53354443897104   -6.75958804519982
C          -9.04227838733167   -1.06020649248893   -6.10186415725136
C          -8.37430457727453   -1.76307900135820   -5.07643734728421
N          -7.81280962449113   -2.29133136518101   -4.22584453937572
C          -8.46989771924299    0.20934519933074   -6.33094290246976
N          -7.96667582324545    1.23029837717050   -6.47509155320837
C         -10.26891867596149   -3.93204452509981   -5.98324710933500
C         -10.86923785411609   -5.23204620541306   -6.03828151163915
C         -11.34830068014670   -5.91953971778555   -7.13730747183905
N         -11.41180520816376   -5.51069035975529   -8.48255011542036
O         -11.02058998085790   -4.39173332138960   -8.78778046032540
O         -11.83330282451683   -6.31794490449148   -9.28922484016562
C         -11.68894617691030   -7.26621866786772   -6.73980305888434
C         -11.38632640175167   -7.42742109795334   -5.42953119968412
C         -10.86515609259760   -6.18915514569390   -4.91814431757656
C         -10.53231283049831   -5.84142975296266   -3.62307086134490
C         -10.56313843707778   -4.50675009057398   -3.11815058976670
C         -10.31763150211992   -4.53074106886920   -1.77911785208941
C         -10.03807884228790   -5.87413560375565   -1.37752130285169
N          -9.86738549016187   -6.17040608739578   -0.01300281748736
O          -9.89552924037677   -7.33533897679489    0.36083416068637
O          -9.73414193112891   -5.22776249137212    0.74718160838671
C         -10.12658972123647   -6.71861227305309   -2.49710534947092
C          -9.74702937508956   -8.05953537811559   -2.66919398720062
C          -8.96317868626622   -8.78469997684037   -1.80409967715639
C          -8.70909821880432  -10.15566245194937   -1.95124844435314
N          -7.90981989285317  -10.87099050982371   -1.09307254355613
C          -7.21643155952694  -10.35995744129159    0.06824095924320
C          -8.15513343917118  -10.15889631492803    1.25506552460909
C          -7.87538184837771  -12.24004059337309   -1.40942505123327
O          -7.24130490667481  -13.06872029929747   -0.79685438104307
C          -8.72923642229088  -12.34838102417057   -2.57950637612348
C          -9.21518784292144  -11.07245153058789   -2.89589230351586
C         -10.08307230236526  -11.21510625964455   -4.04424640111845
O         -10.73097573454316  -10.40687536061097   -4.67757868618397
N         -10.06892637733244  -12.59358112815092   -4.34240215066873
C         -10.79038946559881  -13.07481389640179   -5.49696424078101
C          -9.85702303693237  -13.37620295268827   -6.66688553356331
C          -9.26433928576381  -13.28953705991618   -3.47230040920034
C          -9.00064465733681  -14.67221795190300   -3.36082558453754
C          -9.50313512205823  -15.71394301788491   -4.08269711415247
C          -9.18588284247140  -17.02472555649865   -3.78755622008652
C          -8.93794322920910  -18.19519067738008   -3.53592240212998
C          -8.68355965039137  -19.47617958337984   -3.25380534457405
C          -8.46392868399120  -20.64889463295600   -2.98856000394109
C          -8.22869325764978  -21.97639342396320   -2.69193232329297
C          -9.06200775558621  -22.97801525496421   -3.08388740496474
C          -8.82390202343867  -24.32943203300799   -2.74667106996298
C          -9.52679645056061  -25.42446581991600   -3.15166689820857
C          -9.40494771623909  -26.69684216728630   -2.38515164422236
O          -8.55096081230709  -26.97263747244223   -1.57591614058415
C         -10.57923488564439  -27.49923189117155   -2.78151554662243
C         -11.00693731317103  -28.69599528119448   -2.28288551429406
C         -12.19233497822163  -29.26919762418200   -2.79502418547949
C         -12.91675499385141  -28.58434069454242   -3.81391528661461
C         -14.10370871019356  -29.15683908514874   -4.31371359801529
C         -14.54891193151394  -30.35385381710751   -3.82713849080732
C         -13.83061581701844  -31.03129701159711   -2.82074643402063
C         -12.67666985163977  -30.50161217666643   -2.31483746829518
F         -14.29136755818257  -32.20177580790643   -2.36218498323479
F         -15.67635378401481  -30.89613327210357   -4.30298726307072
C         -12.44556901705017  -27.34966358666751   -4.31598565734569
C         -11.28893415073011  -26.81763270123195   -3.81183718858842
C         -10.55693989983710  -25.59928231960457   -4.15286904115614
C         -10.69202616745020  -24.89640711890632   -5.32109105283928
C          -9.79016375086599  -23.90305509077614   -5.75927281920947
N          -9.06275494070647  -23.12357133152319   -6.18376364147245
C         -11.69199196331928  -25.16052959786528   -6.28098142325079
N         -12.49825366330511  -25.32038504615899   -7.08180353865651
H         -10.49733984886127    2.60141733017484   -9.88490696286059
H         -14.58233760811880   -0.02960011452731  -10.86799161798262
H          -9.79428068986400    0.93943447487723   -8.24220150185819
H         -13.89541759858345   -1.73921074476824   -9.18639986804692
H          -9.32039532187888   -3.88204215119893   -5.46223766392023
H         -12.11360007479478   -7.98826226983358   -7.41020148395212
H         -11.59031368074814   -8.30851788188413   -4.85657601818792
H         -10.86143188102488   -3.64687627174607   -3.68451401557418
H         -10.33805052914999   -3.70220741628076   -1.09650765358715
H         -10.06362467379883   -8.54339297097154   -3.58076822507409
H          -8.52316574158081   -8.30270077050417   -0.94748474151831
H          -6.70962516761045   -9.42715433978745   -0.19175929020418
H          -6.46253490495680  -11.11184353604091    0.31860511939333
H          -8.90877188902668   -9.40360036686406    1.04590296425113
H          -7.57900043299855   -9.84207398646687    2.11974417780610
H          -8.65391954529518  -11.09446433957796    1.49639117602096
H         -11.47191895001900  -12.26602445400736   -5.77756733897211
H         -11.39047713794070  -13.94586972288488   -5.22170754482369
H          -9.35274411215353  -12.46536712810797   -6.98016539512732
H         -10.43164182670767  -13.75796516319667   -7.50616196636867
H          -9.10115716792512  -14.11010189669856   -6.39593968139350
H          -8.31814878390149  -14.90365928527114   -2.55144904856185
H         -10.18618301358569  -15.57622778422328   -4.90866574518303
H          -7.32726583887420  -22.20239719824556   -2.13413742842166
H          -9.95306068331697  -22.72377845783935   -3.64009257308456
H          -8.04427808857988  -24.52810425543596   -2.01767076183975
H         -10.44907684779414  -29.19816876399385   -1.50727825736137
H         -14.66371732263731  -28.65359428689889   -5.08638741679478
H         -12.13882596329675  -31.03220714076703   -1.54483885911896
H         -13.01810128295062  -26.84986684022448   -5.08100185392118
