111
 SCF done       -225.927815303511          0.000718327745
C         -11.38594223233450   -1.47582627357404   -0.32662529450561
C         -10.78770495556618   -1.00786300180766   -1.46300505987565
F         -10.85111569003064    0.29268916159340   -1.77087165820514
C         -10.09792836705257   -1.88551659673598   -2.32420578307450
F          -9.52196149487923   -1.40030681080650   -3.43129193195034
C         -10.01658235024997   -3.21910280749522   -2.03680290335425
C         -10.62364249964387   -3.73207259911596   -0.87386888623106
C         -11.31966231699623   -2.84553132476247   -0.00119692830087
C         -11.93096750642107   -3.33715572712834    1.17469258379375
C         -11.84734779018596   -4.67274941271675    1.46810659612005
C         -11.16022236711161   -5.55382381110438    0.58562871996998
C         -10.56029218383854   -5.10681345189410   -0.55702710074892
C         -11.23531656340036   -6.93140556641358    1.10359275423234
O         -10.81776438461675   -7.93394583145809    0.56083038157364
C         -12.02022837481301   -6.83873164031818    2.36052698986952
C         -12.34319541287654   -5.44581124724426    2.60051531593921
C         -12.90154734788212   -4.94199444685678    3.74375034847046
C         -13.19476687482783   -5.72444810198758    4.88178912061925
N         -13.40089193409857   -6.30224611787557    5.85156618992260
C         -13.18586368100233   -3.57530411145916    3.94705556272949
N         -13.44066541397925   -2.47597027375161    4.15444491407947
C         -12.50651597911021   -7.92360611870397    3.02466200816486
C         -12.02595116172588   -9.24839189905016    2.83818895812723
C         -12.77826838822229  -10.40001040707659    2.63971982254623
N         -14.18062698517343  -10.45686817408676    2.57276509025512
O         -14.69768940855882  -11.55266477403817    2.45412014142498
O         -14.79689357695943   -9.40410046440284    2.63739669000115
C         -11.90384508664030  -11.51019084944352    2.40987446027022
C         -10.62152133638547  -11.05248978248418    2.43015400635089
C         -10.63147821760247   -9.64512091808387    2.71426882342664
C          -9.54064926623089   -8.84219813287948    3.02056026995861
C          -9.51098709601441   -7.80378277525235    3.98053945252623
C          -8.20997373863873   -7.40202502946337    4.16784310512121
C          -7.36931287834148   -8.11573877039434    3.27651843167252
N          -5.98857963993812   -7.91434084720191    3.19578686185206
O          -5.32872567136401   -8.63219819630616    2.45035240588464
O          -5.50309250263666   -7.03447977727642    3.88714331064520
C          -8.16435008495651   -8.98894716408462    2.50262880341449
C          -7.75363126463256   -9.65136646493159    1.35366725171782
C          -8.58564328627479  -10.21704198869634    0.40217450451396
C          -8.18596782378527  -10.93940871168714   -0.71402922743577
S          -9.41438162312167  -11.31236324130270   -1.89670102416000
C          -8.27669350399010  -11.97284095074767   -3.01435876604507
C          -6.97748253078658  -11.99933247290303   -2.45596470855912
C          -6.92219053425586  -11.44062945551747   -1.14494434681071
C          -5.71508321147661  -11.46728275085811   -0.43961940179026
C          -4.57692318003196  -11.99425475361050   -1.01784209696321
C          -3.28654126225975  -12.01799374430603   -0.26909552744563
C          -4.65021134500450  -12.55614437834124   -2.30464590515927
C          -5.82436135619254  -12.57978563025204   -3.00987264710048
C          -8.72886680261936  -12.38545218837745   -4.28679168885115
C          -7.98511902200978  -12.39511575600599   -5.42682696457355
C          -8.47493852077136  -12.85386147360423   -6.67137578937723
O          -9.64594901391285  -13.51286954091414   -6.78301731855676
C          -9.82495905003163  -13.85287873553708   -8.07729819956607
C          -8.75627685631943  -13.37585061609939   -8.84159922580452
C          -7.87613151306534  -12.73996253449707   -7.93140774742021
C          -6.65056167390247  -12.11955867102913   -8.20728028737072
N          -5.64468214773181  -11.60922729219716   -8.41116460338514
C          -8.59402027613017  -13.51962783734419  -10.22690362322741
N          -8.46998309342332  -13.63367852706181  -11.36018105870246
C         -10.89664052570135  -14.68447290966225   -8.48419557105978
C         -11.72116950975049  -15.30118808519905   -7.60014775826488
C         -12.66417855619412  -16.28326459275511   -7.98815785140749
C         -13.22117202716743  -17.23381938852431   -7.19011478051007
C         -14.41012574066157  -17.99961166691608   -7.66671618672013
O         -14.84356646561271  -18.02275046172838   -8.79347920896118
C         -14.94789659713267  -18.66573594916669   -6.46580269153540
C         -16.07882713559241  -19.42055441112175   -6.34119339011888
C         -16.41018932160805  -19.95862063516870   -5.07787278277639
C         -15.56504473108512  -19.69122759278924   -3.96132233252618
C         -15.90161083541556  -20.22851034682323   -2.70248477201672
C         -17.02105736274081  -20.99971858631448   -2.56018981811217
C         -17.85539517541380  -21.26496376090069   -3.66587671656379
C         -17.55800844484624  -20.75491994234621   -4.89878914499300
F         -18.94432132030927  -22.02341741945681   -3.49674765286204
F         -17.33636346077366  -21.51359828232732   -1.36640251471642
C         -14.39991674987892  -18.90718694777356   -4.12091918325785
C         -14.08785061934416  -18.40956915507881   -5.35867693737476
C         -12.93943209527627  -17.63619334518825   -5.82726523816655
C         -11.74852916197276  -17.51739334629130   -5.15871762940694
C         -10.54094140079085  -17.03121171124025   -5.70388322130796
N          -9.50821366883492  -16.69498175842982   -6.07689043765053
C         -11.54408581963287  -17.96581376712144   -3.83521091237181
N         -11.31706985362412  -18.28095699080081   -2.75536366443848
H         -11.90801424590976   -0.79027200409363    0.32237702303382
H          -9.48489293185255   -3.87706908863095   -2.70617105824332
H         -12.45543627641852   -2.64466557055908    1.81322082906668
H         -10.04210513575668   -5.79306075540098   -1.20965163611883
H         -13.35026636321701   -7.80816066721277    3.69572012391283
H         -12.24388574532237  -12.51506097885671    2.24864123858490
H          -9.72989833683879  -11.64609354237466    2.36073016751080
H         -10.35535353851006   -7.48275675224902    4.56076407277486
H          -7.85369087316567   -6.67573712330317    4.87455254580146
H          -6.69036223028880   -9.61558678046379    1.16554334909172
H          -9.64597383370405  -10.01388089425886    0.47765139535341
H          -5.65707523881125  -11.10479936583033    0.57228589942326
H          -3.09586370784458  -13.02255245153892    0.10984718775441
H          -3.31085075676927  -11.33228695435126    0.57328418955422
H          -2.45963554826755  -11.75079542833963   -0.92363002551866
H          -3.76262085632259  -12.99876839816168   -2.73102838390069
H          -5.87078053817197  -13.06893011468683   -3.96868201763423
H          -9.77671965516746  -12.64867703144748   -4.35989149981709
H          -6.98307163300038  -11.99352971440536   -5.44594379510748
H         -10.95174329424584  -14.90341534183275   -9.54133391774924
H         -11.62377068827422  -15.06622911761844   -6.54952617887544
H         -12.99797207492301  -16.28248407542874   -9.02053757747372
H         -16.70994759553961  -19.60718942296044   -7.19662075054384
H         -15.27295278803932  -20.03819299323941   -1.84666192963861
H         -18.20633807919686  -20.96706391941836   -5.73443991355200
H         -13.78527180067806  -18.71580866832006   -3.25598711390209
