121
 SCF done       -244.367948735641          0.000826618965
C         -13.01193676861779   -3.65766680033052   -0.14467935920273
C         -13.85916033516287   -4.20659708491134   -1.06629670611396
F         -14.84599204824561   -3.47285283473960   -1.59092627467731
C         -13.70915109816797   -5.54834167480243   -1.47334869531162
F         -14.55649335239067   -6.05595458707041   -2.37397220365686
C         -12.71691338661079   -6.32694460650544   -0.94693058234596
C         -11.82884582493116   -5.78871313639070    0.00339652807137
C         -11.97152128577051   -4.42900450738383    0.40821259163703
C         -11.06101317541510   -3.85820731521977    1.32646387394233
C         -10.02010480461079   -4.61294612806727    1.79981973049196
C          -9.88283479959792   -5.96890371782701    1.38662950103858
C         -10.76939729713821   -6.55885599598600    0.53029900382801
C          -8.62995752475300   -6.51573847775382    1.92152636094068
O          -8.25990549556738   -7.67245545887504    1.90876105013657
C          -7.94381400805414   -5.36311784334430    2.57253241127130
C          -8.87443272002898   -4.25938208775036    2.63308754280475
C          -8.66706099144426   -3.05660843328443    3.25614441476605
C          -7.48379483447550   -2.71752232651133    3.94563579996119
N          -6.52904142607783   -2.37512061365233    4.48181261988547
C          -9.60994810918925   -2.00734142908814    3.27218974715683
N         -10.34676957465661   -1.12953352212019    3.32594737362856
C          -6.65153041328216   -5.45437348288006    3.03606074900052
C          -5.73639079200581   -6.32591593243395    2.42732415932341
C          -4.70884872766963   -7.10376293493375    2.96537421705443
N          -4.32785629095669   -7.14260248882386    4.32089837591519
O          -3.40539561730309   -7.87538331332608    4.62339380140383
O          -4.93972624693071   -6.43478525119521    5.10155299348883
C          -4.18822093011773   -7.94387919426177    1.95026817898369
C          -4.88835962430433   -7.71605282634866    0.78137078193654
C          -5.82518814454420   -6.69113340167572    1.00346106850692
C          -6.67733992228801   -6.02802129419788    0.11122152810826
C          -6.93793478030236   -4.63102885056281    0.08659409686188
C          -7.89990016796792   -4.38281830292915   -0.85130223331882
C          -8.31974307612469   -5.61837904893762   -1.43053182356439
N          -9.49031931729561   -5.66746106266811   -2.19710003265647
O         -10.09279149899631   -4.61532963007170   -2.35752035306402
O          -9.90102399610997   -6.74090886765420   -2.61100050401187
C          -7.53325319834911   -6.66373878866579   -0.90025990258135
C          -7.58155497448877   -8.06245477099106   -0.98149223275859
C          -8.20385806526003   -8.84774233437550   -1.92242020740679
C          -8.34506565886310  -10.24140588423458   -1.89125222462336
N          -8.19750776098592  -11.12791762798955   -0.84982295992040
C          -7.87966355960329  -10.86091370010584    0.53727017351912
C          -6.38578129629993  -11.01246545713979    0.81267959118289
C          -8.47263248223206  -12.44705291819222   -1.24307918225596
O          -8.40316542480774  -13.40261551773223   -0.49756673006339
C          -8.82955701275649  -12.35001637844880   -2.64829480834239
C          -8.74993269908053  -11.00406457526811   -3.00956653178284
C          -9.08051584104731  -10.88341158511839   -4.41918069184584
O          -9.10711328452015   -9.94350045377281   -5.17433014228832
N          -9.37172325013543  -12.21229816680506   -4.81066146750788
C          -9.82779791551309  -12.50591886849593   -6.14895280105346
C         -11.34561224099636  -12.65907466963846   -6.20648921707576
C          -9.22792523164496  -13.09941148215360   -3.77779208158765
C          -9.43801746287551  -14.48356881450432   -3.88812858370885
C          -9.22966453111628  -15.33385986320283   -2.83238649861073
C          -9.38819173356271  -16.72691987120301   -2.81785260636341
S          -8.63565082090316  -17.58759513934942   -1.51322297858692
C          -9.05935189759685  -19.13900737206523   -2.14696699047883
C          -9.81581003296184  -18.99471129517656   -3.33197708174514
C         -10.03278939518720  -17.63143193817064   -3.69714857453520
C         -10.86808675993340  -17.33934185173571   -4.78315716307012
C         -11.41610523726541  -18.36658530922900   -5.52287285383467
C         -12.25170119095404  -18.06112405739159   -6.62337330539945
N         -12.91484437846910  -17.77847792717989   -7.51327786568841
C         -11.15354672967764  -19.72412444976877   -5.18723634990656
C         -11.71703899026111  -20.75644669722712   -5.97541596110279
N         -12.16266166112104  -21.59666759491673   -6.61281102982292
C         -10.37649912037860  -20.03076224610015   -4.09168753043154
C          -8.59078314706434  -20.35259641633406   -1.60989510459610
C          -8.08150173561799  -20.62058737552152   -0.37299814968968
C          -7.19475831435853  -21.80919544221935   -0.20195826849226
O          -7.05204478388019  -22.71604176193231   -0.98699944394255
C          -6.50302564877727  -21.58726242733980    1.08167643077212
C          -5.49048910807660  -22.30829579007216    1.64655829893722
C          -4.95409743013298  -21.88530968231566    2.88337141387526
C          -5.47699361043972  -20.71693745194019    3.51163329797741
C          -4.92999937769348  -20.29658527276116    4.74037794737286
C          -3.91391022469128  -21.00387372072323    5.32002926067798
C          -3.39889074437650  -22.16031616188885    4.69882811629765
C          -3.90767042950808  -22.59303856080909    3.50613752957179
F          -2.40299884026819  -22.83180558830716    5.28813732187822
F          -3.39573650205328  -20.60355418220627    6.48608967767199
C          -6.53259962080344  -19.99551130445620    2.90785698312475
C          -7.04128258943237  -20.42850967548173    1.71324876543127
C          -8.13077757147751  -19.91548001762092    0.88727698416578
C          -9.16382380135165  -19.13072634119649    1.33139569951646
C         -10.32623799220792  -18.90057934621569    0.56895571944588
N         -11.29042053191357  -18.73411795145524   -0.03165652126291
C          -9.21503454602308  -18.55974553201001    2.61949181904587
N          -9.29388180049853  -18.06772964005360    3.65271238223183
H         -13.13586092149699   -2.62648513004086    0.14659247183282
H         -12.59931109229035   -7.34520925020263   -1.28239353222332
H         -11.19294877520803   -2.82629096975210    1.60943257494466
H         -10.63937408697189   -7.58442654539586    0.21822837199548
H          -6.30727754782589   -4.86117717918245    3.87568997216243
H          -3.38553989215699   -8.64163813062618    2.09901564909273
H          -4.66272291738215   -8.14305635032114   -0.17801180519481
H          -6.40542181656814   -3.90176183140113    0.66757449195634
H          -8.31632201165574   -3.43132572546795   -1.12266815757689
H          -7.01415522259797   -8.55196202684296   -0.20475032625995
H          -8.62411060918986   -8.38954678784783   -2.80744888964983
H          -8.42169269869046  -11.60620780453755    1.12705791415182
H          -8.23789595338941   -9.86844408369438    0.81400440375466
H          -6.08969090405228  -12.05141766661841    0.69066686307549
H          -6.17199819759661  -10.70426323451287    1.83169914890886
H          -5.79438834171910  -10.40448557907395    0.13211577346120
H          -9.32651961590893  -13.40459818821250   -6.51870941225617
H          -9.52352532985221  -11.65577629318599   -6.76539529054373
H         -11.68692571196754  -13.45911094008998   -5.55287169572770
H         -11.65424558538631  -12.88325568198663   -7.22336425050733
H         -11.82348060061488  -11.73374572234409   -5.89531864833565
H          -9.72540922904633  -14.86648101979469   -4.85413738931717
H          -8.85562162218971  -14.90511404575886   -1.90972930441131
H         -11.12354947483756  -16.32318678649391   -5.03368344920515
H         -10.21717662955716  -21.06236400483654   -3.81910834399876
H          -8.53213438165258  -21.18523667648612   -2.30552083611063
H          -5.10265106239848  -23.18819267181462    1.15640823354747
H          -5.31444546080296  -19.41626347784193    5.23132720823068
H          -3.50254133330365  -23.47951202971732    3.04384610043866
H          -6.90575637709619  -19.11071245236166    3.39880905111770
