112
 SCF done       -228.517176494514          0.000850791342
C           2.08251488270664    0.74942929045536    2.24709157963780
C           3.43248710171374    0.54745820573288    2.18190176585709
F           4.27793271231238    1.52773276009537    2.52563858746299
C           3.95258544006172   -0.69092722514451    1.75424234749686
F           5.28067886154358   -0.86129846314101    1.70060261666089
C           3.11509240150543   -1.71004073769867    1.39693005673876
C           1.71893072110389   -1.53262383365077    1.45266869906161
C           1.19147879479670   -0.28189663497936    1.88697009439575
C          -0.20610799348009   -0.08238331272721    1.95563909258891
C          -1.05096931264107   -1.10372660488685    1.60629133305036
C          -0.51512754471563   -2.34694453213634    1.16942274441704
C           0.82954283713830   -2.56644056805266    1.08533674094317
C          -1.61728672291221   -3.26843357700040    0.83263081135034
O          -1.51063044902052   -4.34041927089314    0.27848354497882
C          -2.86752243763904   -2.53543723772538    1.17383901245610
C          -2.50847130575503   -1.19324150356876    1.59582826405888
C          -3.36881013888478   -0.19994174888637    1.98114647532393
C          -2.95675511075098    1.08218367391164    2.40359321638401
N          -2.68637486092839    2.14284730706829    2.74916557814209
C          -4.77634210353084   -0.30328440602806    2.02001791077944
N          -5.92199474260620   -0.29958063796125    2.09444302454567
C          -4.12394497979356   -3.02037149970887    0.98155676676507
C          -4.44435121467090   -4.39726445595097    0.77775526652819
C          -5.52387317992726   -4.76072187402958   -0.06315166397719
C          -5.86125172494324   -6.13043474334493   -0.32544916357710
N          -6.92845216185455   -6.41944679987417   -1.10363506692179
C          -7.60346342919409   -5.43211356762724   -1.62314957659220
C          -7.24078781811357   -4.08641741490483   -1.40183909409685
N          -6.23041123123584   -3.76762929501721   -0.64450644445677
C          -5.13638286617793   -7.18692420307174    0.26961124879717
C          -4.10387318442498   -6.82426968994037    1.15246333765527
C          -3.77634221479207   -5.44740481976696    1.42958893029776
N          -2.81976947491271   -5.34786041358441    2.35731457441834
S          -2.34284887215724   -6.81948040304817    2.76304368464341
N          -3.30624491025892   -7.66583531818592    1.81719928184592
C          -5.44344271381284   -8.58592136408331    0.15157680912978
N          -5.72955620745606   -9.28930107485673   -0.97928444257277
C          -5.65114749176377   -8.81642457157967   -2.34014791785885
C          -4.21969884904797   -8.46024483845400   -2.72980285525155
C          -5.91790263011403  -10.66759671385382   -0.70128054386868
O          -6.14137032478203  -11.49448432894706   -1.55683505411531
C          -5.77404593621258  -10.75862276999653    0.73513733011168
C          -5.46919447163180   -9.47349859701140    1.22729662187059
C          -5.37023049653085   -9.56492418681001    2.67013328308741
O          -5.18862910953107   -8.73356768553858    3.53292323022878
N          -5.55271926307015  -10.93884316377415    2.94640546246049
C          -5.59328554884726  -11.38249545348808    4.32050050161977
C          -6.99828741941363  -11.78917721224444    4.75432225253530
C          -5.79622300365867  -11.66384384645029    1.80206626342294
C          -5.97719899417055  -13.05193793204163    1.61274954488039
C          -5.77560582412707  -14.06681341514084    2.49943872375205
C          -5.89293239244523  -15.44437410234330    2.18309843200128
C          -5.54868351996815  -16.40904809980178    3.17267051519728
C          -5.64839873109060  -17.81795458731632    2.94030549977803
N          -5.19217237303562  -18.68021711155138    3.87132100559757
C          -4.77817415371509  -18.20954272079610    5.01412143857164
C          -4.79655761207954  -16.82757882441557    5.28780675697211
N          -5.13032522324701  -15.96112492918119    4.37279103899391
C          -6.17035992069078  -18.33491765596127    1.72620685509479
C          -6.45882929365049  -17.38552896723854    0.72599517914235
C          -6.33456621660621  -15.96406185306920    0.94602561029289
N          -6.70849704746047  -15.27344391343211   -0.13328575524713
S          -7.15818131416086  -16.28776412821903   -1.28585660222505
N          -6.91614059915888  -17.66095719514955   -0.49777028921959
C          -6.34196734092425  -19.71928006908574    1.45983407496699
C          -6.52167235791693  -20.74497574419590    2.33648043559018
C          -6.21629632431263  -22.13728132756082    1.90468885070031
O          -6.04544218405198  -22.52904569882633    0.77450050934595
C          -6.10780515723497  -22.91179817696278    3.15945448606649
C          -5.70478514231375  -24.20335939155042    3.33793644005495
C          -5.63791142708876  -24.72713991313159    4.64887619170119
C          -5.99085544102930  -23.89705875958031    5.75234560148719
C          -5.91158514981456  -24.42287332211040    7.05756879306567
C          -5.50248921834722  -25.71130276024987    7.25802058579947
C          -5.15487266850901  -26.53145669977250    6.16609969961778
C          -5.22175472016912  -26.05121896549124    4.88824205092910
F          -4.75505547963586  -27.79043225565702    6.39233652191900
F          -5.42644933767497  -26.20791005041017    8.50017923988787
C          -6.41446981315970  -22.56566867658920    5.53514280515170
C          -6.47603127760090  -22.08119986873926    4.25620707326005
C          -6.87800410600615  -20.77668150128288    3.73707399866002
C          -7.65555478140831  -19.86650876931400    4.40597965104048
C          -8.18875775354679  -18.70678380022920    3.81199603509516
N          -8.64881107899441  -17.75095064341682    3.37224429409564
C          -8.01931602830352  -19.99037982573441    5.76090778914533
N          -8.31654854348171  -20.02612993173832    6.86960183798142
H           1.70087549447036    1.70298156451958    2.57730739568592
H           3.52918006287419   -2.65135577648643    1.07097012961802
H          -0.57227372479502    0.87695309866885    2.28346579697418
H           1.20908982296188   -3.51875446710376    0.74734862845523
H          -4.96770182534280   -2.34405202070895    0.93931528740779
H          -8.45720173503276   -5.69690637894734   -2.23200370030291
H          -7.79317489188974   -3.26983692626902   -1.84559883617845
H          -6.30923827452217   -7.95184255245865   -2.45456793490417
H          -6.01734187625370   -9.63836140292480   -2.96121853409537
H          -3.83940725314080   -7.65115619241203   -2.10929720926650
H          -4.19028093057017   -8.14313382233621   -3.76845581581302
H          -3.56882459884768   -9.32352417048979   -2.61076447306373
H          -5.26386790805118  -10.52119375145615    4.91029578343640
H          -4.87946775952499  -12.19591374512695    4.47317109317464
H          -7.67857823615394  -10.94834715459116    4.64298044754165
H          -6.98510441349986  -12.08790030033960    5.79871941016031
H          -7.37214110286713  -12.61898643008097    4.16008208750723
H          -6.25716346702512  -13.31183354228686    0.59929195369499
H          -5.45667035256216  -13.88465420358334    3.51339515433032
H          -4.39863822096864  -18.92807392581548    5.72796947805444
H          -4.49244468820165  -16.43339677911102    6.24732282713253
H          -6.26428721320543  -20.00149232673022    0.41440312691193
H          -5.43601746709261  -24.81718821405125    2.49173231757094
H          -6.17781296125189  -23.81002105329842    7.90458813799906
H          -4.95220612322388  -26.69170029390099    4.06310024775925
H          -6.66935210873041  -21.95685829216451    6.38802576637562
