127
 SCF done       -256.632872976981          0.000477340671
C         -12.90378075801527   -0.76998740317451   -2.30360911033811
C         -14.20368065844328   -1.17221438789267   -2.17566981926064
F         -15.19909064130526   -0.28722783911266   -2.31112254021128
C         -14.51389956104095   -2.51954016899317   -1.90088656202328
F         -15.79685322139400   -2.88572804099012   -1.78019144073798
C         -13.51956259881972   -3.44619571504238   -1.75847178330065
C         -12.17001708142018   -3.06300903974868   -1.88484708220069
C         -11.85500991700734   -1.70100062050941   -2.16325091149587
C         -10.50794054814672   -1.29445610282117   -2.29802072822850
C          -9.50931056300956   -2.22200003450286   -2.16064774247032
C          -9.83135463985480   -3.57915462360963   -1.87475416077914
C         -11.12329445280073   -3.99999322814335   -1.73811956932820
C          -8.59077154552952   -4.36652535070424   -1.74852152942664
O          -8.50294171549706   -5.54134737223802   -1.45796573143479
C          -7.48663426722565   -3.39531970969410   -1.94932306421415
C          -8.06022728277656   -2.10281813080961   -2.26724680254939
C          -7.36549549461077   -1.00792131603709   -2.70476067678726
C          -7.96166306389367    0.23029122623782   -3.02175660834689
N          -8.40050765588725    1.25720943028473   -3.28572116694261
C          -5.97649147064729   -1.01384172020748   -2.95739585518467
N          -4.86356129105627   -0.98412346942835   -3.23554363251189
C          -6.18498780183091   -3.66559693003984   -1.65653727907755
C          -5.66318654005203   -4.97620339165554   -1.47637925932638
C          -4.86447515691581   -5.41764318197230   -0.42690387527938
N          -4.43517952256279   -4.63521914557990    0.65698846339395
O          -3.66920198777381   -5.14485571689713    1.45492586251705
O          -4.85177599062884   -3.48885316407212    0.73406627859068
C          -4.61752289935327   -6.82032878184165   -0.56976905798319
C          -5.27672761935552   -7.25646723960835   -1.67709409627402
C          -5.93838522252898   -6.14213599165942   -2.29982899653636
C          -6.53653490509292   -6.12048883846140   -3.55312919501532
C          -6.50413159715314   -5.04843162306708   -4.47972590593903
C          -6.93007711170165   -5.50272879480158   -5.70057358634484
C          -7.31399942200901   -6.86850800889897   -5.58306742911751
N          -7.88968222697248   -7.58626196669841   -6.62208676397937
O          -8.30461497213373   -8.72641835564611   -6.40118636861462
O          -7.97125539552058   -7.05476896422925   -7.71895234153417
C          -7.13107182874375   -7.27860779201894   -4.24776288474527
C          -7.53869099097216   -8.48138099462787   -3.67034413971638
C          -7.79096111251109   -8.64159560840419   -2.32386014141485
C          -8.07473836354984   -9.82909756679466   -1.63716337152198
C          -7.98489909312829   -9.87940494205138   -0.23419264683376
C          -8.05104190612027  -11.19974684614116    0.21106045515223
O          -8.00154671726448  -11.45289275682460    1.52147862909071
C          -7.96672022571126  -12.76846304079896    2.02586971298944
C          -8.24329173347238  -12.04363851648394   -0.92430193342823
C          -8.23812232858050  -11.19760827451420   -2.09583509910257
C          -8.35438714907071  -11.70091435653715   -3.38938256288227
C          -9.03655421762621  -11.18701924235665   -4.50273921471779
C          -8.95042795530816  -12.11703050829135   -5.52847008695636
O          -9.49853462554153  -12.14706593199493   -6.70940005724441
C         -10.32856697766150  -11.06401812280610   -7.09788720264039
C          -8.08796781205233  -13.22296389049510   -5.08716270003167
C          -7.76386795607751  -13.00448482532776   -3.80792003825552
C          -8.64399578325440  -13.39917364220182   -0.95646350659996
C          -9.45204529399918  -13.91666266055302   -1.92868094486771
C          -9.75914966595704  -15.28832828764380   -2.05659427375435
S          -8.94809871667222  -16.46290453232487   -1.05287957908391
C          -9.75071322083198  -17.79621798163208   -1.83451130226798
C         -10.59687314754934  -17.32376093480990   -2.82647706608828
C         -10.61664442104080  -15.92556931055709   -2.94480251616575
C         -11.57375959853506  -15.32558853116113   -3.93409963164576
N         -11.88541079718782  -13.91027973913451   -3.64953486258507
O         -11.54724806401111  -13.09584403461564   -4.47981217794193
O         -12.46441895654816  -13.65760619953729   -2.62427919435923
C         -12.87541383160315  -16.13267412618169   -3.82357536599590
C         -12.65222055801309  -17.55906854189498   -4.31287865121078
C         -11.38402967817220  -18.20689782639647   -3.74747163458875
N         -10.39645264488815  -18.47993961399172   -4.85008399427522
O         -10.32988714879623  -17.67783507356540   -5.74628980480207
O          -9.70084166454149  -19.45181971834693   -4.71575677402518
C          -9.46550603126855  -19.14504935826667   -1.49188399832323
C          -9.05113615526166  -19.61084387246752   -0.28430857996042
C          -8.35173922348718  -20.92367794478895   -0.17451992386558
O          -8.31884780183977  -21.79978864244212   -1.00303729783396
C          -7.67741894668352  -20.88178866291049    1.14046364228664
C          -6.79951828294198  -21.77641175286433    1.68091946601330
C          -6.25869751974615  -21.52065564814703    2.96126889247618
C          -6.63941917809341  -20.33737004648857    3.65972919431296
C          -6.09183559985361  -20.08766909794434    4.93411467053545
C          -5.21033965922512  -20.97164264503165    5.49048626919656
C          -4.83574513821914  -22.14229516093454    4.79970409558300
C          -5.34858771743077  -22.41217428188286    3.56162299687425
F          -3.96966675530082  -22.98919105260831    5.36838722434861
F          -4.69206149247392  -20.73244995655560    6.70064513983535
C          -7.55764266451532  -19.43292211031995    3.07946376756492
C          -8.07075126916583  -19.70325230533322    1.83909695862618
C          -9.04691487476764  -18.99024898084402    1.02415151372596
C          -9.97186243791960  -18.08620474345157    1.48034928367178
C         -11.07947167423787  -17.68842714266510    0.70373786809236
N         -12.00574627323493  -17.39756468138916    0.09088427885305
C          -9.94456020730216  -17.51496856812666    2.76697955112067
N          -9.93160317033053  -16.98786364126481    3.78649648523692
H         -12.68378619557303    0.26471260534431   -2.51524451316443
H         -13.77368448468810   -4.47314910449349   -1.54759360072791
H         -10.29811756494500   -0.25655477419515   -2.50103181425901
H         -11.34377398188925   -5.03435213266628   -1.52180939066766
H          -5.49778862317717   -2.84688801567571   -1.47428021248595
H          -4.01199257822706   -7.39190801833275    0.10692643445072
H          -5.23545400936605   -8.24362101963335   -2.09521878511129
H          -6.09476611060492   -4.07660199076410   -4.27965712101924
H          -6.97865928574489   -4.94664692957466   -6.61827138790239
H          -7.70615120759967   -9.30385182926719   -4.34921307504490
H          -7.76575183696204   -7.75564339341750   -1.70187023249501
H          -7.83561933947465   -9.03123550134547    0.40597506391104
H          -7.84318639378771  -12.66142249107989    3.10280430847962
H          -7.12029228473911  -13.33050767368897    1.62193716076715
H          -8.90286973343617  -13.29821252769512    1.82640787165496
H          -9.63176364177982  -10.29660182893041   -4.50896725971489
H         -10.62518386692340  -11.26271721887379   -8.12520614989981
H          -9.77603718495313  -10.12377732011156   -7.03490826988596
H         -11.20907338250240  -11.02263842144886   -6.45314893867688
H          -7.79867057192015  -14.03458547750447   -5.72564735515313
H          -7.08725963515494  -13.57146504380877   -3.19842743410645
H          -8.32884133209243  -14.06568189747584   -0.16572912254792
H          -9.90794686386853  -13.23193372231980   -2.62214010260011
H         -11.16286944308749  -15.36538640205798   -4.95099020620881
H         -13.65896593407250  -15.66766856191128   -4.42343202256257
H         -13.19214329170325  -16.12975549537363   -2.77835360665718
H         -12.57266653258025  -17.54437857478400   -5.40286952643001
H         -13.51712662869325  -18.16402379846438   -4.04427580187554
H         -11.58527687047173  -19.16917275295954   -3.27321287443514
H          -9.48471579475830  -19.87056051970761   -2.29961662828158
H          -6.52117875263352  -22.66771412994471    1.13968186190188
H          -6.37045828171020  -19.19881387693488    5.47831269926265
H          -5.05176846108800  -23.31212638438497    3.04623404363466
H          -7.82696680925232  -18.54196784868570    3.62463913089130
