106
 SCF done       -212.060454312432          0.000259730365
C          -3.22267746392449    2.10342187483008   -2.30846766630041
C          -2.79235675546342    2.25533157884495   -3.59659291761332
F          -2.74312457468310    3.47351227435711   -4.15080375940705
C          -2.39599620304975    1.13689979057134   -4.35767971279886
F          -1.97970917245601    1.31633648302394   -5.61827636871467
C          -2.43578199669277   -0.11867197300330   -3.81951833517362
C          -2.87580078627001   -0.30816487141840   -2.49500774312828
C          -3.27523843989505    0.82194796183098   -1.72355185734136
C          -3.71610552074607    0.65672865614714   -0.39073769339090
C          -3.75465172360686   -0.60038770266467    0.15381199661773
C          -3.36224826925920   -1.72242070159983   -0.62651329210332
C          -2.93294342094929   -1.59503157642212   -1.91608431884577
C          -3.50021268744635   -2.95813599838077    0.16930301701133
O          -3.28923358917720   -4.08376087216874   -0.21953525838795
C          -4.04272919343544   -2.52010579382946    1.48681686423395
C          -4.14665226335587   -1.07251366459291    1.47755154677242
C          -4.47040875275525   -0.27538828777757    2.54448542899863
C          -4.76241405146576   -0.74009898026673    3.84468987896351
N          -4.99450783751860   -1.04160082051518    4.92792112962503
C          -4.52580469757694    1.13332703676744    2.48812956996108
N          -4.59562859949264    2.27887624621618    2.50135810106911
C          -4.56091417388233   -3.34818580796406    2.44103344707442
C          -4.37998063150989   -4.75009251799654    2.54749817344432
C          -3.32889904179630   -5.53064752977196    2.11795733618760
C          -3.57549846641243   -6.88804266631394    2.48341151694682
C          -4.87751534491635   -6.90145937143952    3.16964861595927
C          -5.33120309947806   -5.62203016459118    3.22772491899100
C          -5.58948791374805   -8.01997910470125    3.62398807778946
N          -6.23596663299275   -8.90120428179733    3.97518075164637
C          -2.75997765252196   -7.96754700782634    2.22745980796765
C          -2.98095038499176   -9.32620045942396    2.57430491326731
C          -1.96837623009776  -10.10431165543213    2.03880915790000
C          -1.04184107707971   -9.21230586425032    1.35205389864146
C          -1.49043225146687   -7.93707136259082    1.47563774161726
C          -0.81206403236910   -6.81671200459842    0.97851510973958
N          -0.19466389911961   -5.93789501206817    0.57189449470625
C          -1.89747466733968  -11.51184035799040    2.17380324855340
N          -1.12477639499023  -12.37686374657675    1.43582057031355
C          -0.24639550711734  -12.06467522586419    0.34053079036729
C          -1.34082262345954  -13.71741132839012    1.79965668999226
O          -0.78081017655649  -14.65434945885650    1.26450734082638
C          -2.31116370976680  -13.64977519674019    2.86774572929034
C          -2.63467385418314  -12.29275245413668    3.07328387257947
C          -3.57272951904718  -12.21708731288394    4.17748040666492
O          -4.09714095433939  -11.28940685815387    4.74714680882536
N          -3.78203662854362  -13.56703318413515    4.53951780620750
C          -4.68828686859569  -13.92091571501328    5.59780003219278
C          -3.04407099512742  -14.42898489881523    3.77401868598633
C          -3.08525009769856  -15.83505956107501    3.91341158473873
C          -2.32974878959076  -16.65577599622882    3.13306735636939
C          -2.34638472733771  -18.07006144502961    3.17609819135407
S          -1.31326556635326  -18.96039163212230    2.09513504274813
C          -1.90691557087174  -20.48292015000228    2.66760906370743
C          -2.86603243961760  -20.28438483855255    3.67220442743268
C          -3.10221894024808  -18.93399956750172    3.95078765975057
C          -3.54142602209074  -21.30625640831478    4.36291701947878
N          -4.10525505721047  -22.10407216459046    4.96473011672778
C          -1.44258380879795  -21.67676266752337    2.06593960653657
C          -1.93747653522896  -22.91843343504693    2.30615325991634
C          -1.51358251026231  -24.06271500577420    1.59049651749513
C          -2.17407180782366  -25.25096688457405    1.51874856448121
C          -1.47311087140742  -26.47396436657912    1.03828065092680
O          -0.40435935925281  -26.51947848587056    0.47582999882192
C          -2.33770412592049  -27.59855520986665    1.44679531240513
C          -2.10769816661875  -28.93941835875867    1.33200331510668
C          -3.07882932610945  -29.84653503239714    1.81104943974367
C          -4.26848556568112  -29.34289269312670    2.41350844695799
C          -5.23173179208750  -30.25317825557728    2.89323209057896
C          -5.02599682850805  -31.59914168464223    2.77561626882644
C          -3.84971233688591  -32.09596598252780    2.17802560618317
C          -2.89523067373892  -31.23912617490771    1.70613084171368
F          -3.67493598912327  -33.41981271309592    2.07663219642943
F          -5.94351732800518  -32.46254114977086    3.22815339097694
C          -4.48017708695145  -27.94901006117523    2.51720810316044
C          -3.53322603339951  -27.08767755436202    2.03045829807340
C          -3.50483005308442  -25.62846598843150    1.94866749766103
C          -4.60056577125273  -24.81044288728526    2.03659326509780
C          -4.62129958933268  -23.45093477280617    1.65827549280341
N          -4.71397346882073  -22.36206359922181    1.30691332013726
C          -5.88678598122847  -25.26643816065383    2.39859280043495
N          -6.94781681198922  -25.58867017608833    2.69268454150132
H          -3.52050454574924    2.97040696580098   -1.73967398466074
H          -2.12902990554232   -0.96476969247453   -4.41421804622009
H          -4.01727352357369    1.53052059445708    0.16408352232627
H          -2.63805103463357   -2.46499289665125   -2.48276918671220
H          -5.21406218569822   -2.91608589990140    3.19096927295835
H          -2.44076454906999   -5.18790302284017    1.62822938357901
H          -6.25430935774944   -5.28994880595564    3.66639473434260
H          -3.80992299545958   -9.68436088473812    3.15250690711914
H          -0.12866656364862   -9.49824631051520    0.86833258989978
H           0.67410708838079  -11.59443828534178    0.69235961948622
H          -0.74250759125638  -11.41940177364450   -0.38500960841285
H           0.01048285336614  -13.01310855436894   -0.13376403215032
H          -5.10021510367575  -12.98809903596639    5.98385212315019
H          -4.16740365457975  -14.44377760923198    6.40210560266534
H          -5.50335742190468  -14.54304855362052    5.22362462799301
H          -3.75149485342543  -16.24451901021692    4.65836231688683
H          -1.66438579231662  -16.21283351765333    2.40275338666367
H          -3.81229066086953  -18.60918607486322    4.69005741739529
H          -0.68849589746912  -21.55291756151797    1.29885077809265
H          -2.69995087035396  -23.05039643246358    3.05862444501467
H          -0.55793792681007  -24.02004360376246    1.07881119161229
H          -1.19795458310246  -29.30290657794659    0.87891749307406
H          -6.13906509667866  -29.88983831156108    3.34988692357400
H          -2.00064539088808  -31.63493463797349    1.25142984319736
H          -5.38496267432537  -27.59640755552127    2.98573483720768
