116
 SCF done       -238.982743916511          0.000873409160
C          -4.59976701404857   -5.79898306853665   -8.09034542119447
C          -3.61611711061145   -6.69335285608464   -7.76915296871720
F          -2.39366235461469   -6.56801402657250   -8.29274720666472
C          -3.87631378173950   -7.75340998713163   -6.87708329596777
F          -2.89344922655247   -8.61288517769543   -6.56527026390208
C          -5.11744694031817   -7.91106400244605   -6.32937997959108
C          -6.15578321710276   -7.01782559113476   -6.65578395459911
C          -5.89109808151713   -5.93250428314335   -7.54110891125889
C          -6.90894449158260   -5.00055869049812   -7.84906417551037
C          -8.15538219793022   -5.15960708647675   -7.30142775708553
C          -8.42253372391237   -6.27689047864896   -6.45965630550708
C          -7.45510914136536   -7.18255266759877   -6.12938823487700
C          -9.83855688933933   -6.26360458605820   -6.06212750315877
O         -10.43904587503568   -7.14913363859600   -5.48648065394475
C         -10.40365648157110   -5.01532551781019   -6.63102742658588
C          -9.36235142832752   -4.34288913522733   -7.38776636303629
C          -9.46572170973381   -3.11678769421431   -7.98368922951508
C         -10.60974759281338   -2.29251209022332   -7.90006825602040
N         -11.49212857921596   -1.56435522562596   -7.81607842315643
C          -8.42317158025496   -2.50278185287056   -8.71110372360020
N          -7.60933701565740   -1.96873167326843   -9.31778889977759
C         -11.72707926487577   -4.70941038133574   -6.55926353799721
C         -12.62319952599650   -5.37287370117187   -5.67154457595314
C         -13.83018439265596   -5.97087608430574   -5.98858873199238
N         -14.40098255367514   -6.00927948312225   -7.27510321860615
O         -15.50256772510284   -6.50972654050580   -7.38997037872769
O         -13.75005804843760   -5.53710158623437   -8.19370452544480
C         -14.35251038793879   -6.64633069202251   -4.83367237110865
C         -13.45903478251018   -6.50656202545925   -3.81882901207171
C         -12.36551084592561   -5.68780046335499   -4.26808522856410
C         -11.36646984129379   -5.12644805295069   -3.49505509789169
C         -10.78881794020250   -3.83889338825251   -3.67521320106900
C         -10.04315587469374   -3.52990733639295   -2.57094779500794
C         -10.04242468773462   -4.64533522444991   -1.67958002147962
N          -9.26509743081806   -4.68317320160847   -0.51144114949563
O          -9.27874437549717   -5.69688378576112    0.17752942893347
O          -8.60191691832660   -3.69633452507243   -0.25000580892852
C         -10.81834749917514   -5.67190886078216   -2.23523199095833
C         -10.82976889266075   -7.00434125380771   -1.81182532443783
C         -11.13414613756469   -8.09120093668295   -2.59710776891239
C         -10.89663414228105   -9.41074893870557   -2.18811756160075
C         -10.38795605933849   -9.85254750853128   -0.98743457383704
C         -10.04880484073042  -11.23992039699939   -1.01892723183691
C         -10.35325488600513  -11.67742266869140   -2.32509318983704
C         -11.06405134708468  -10.60006087638026   -3.08666857987356
C         -10.45031611132413  -10.61239544713411   -4.48184973726755
C         -10.35604851341521  -12.09224170830330   -4.82377963039229
S          -9.80043194132723  -12.93232503212392   -3.27818948434722
C          -9.30298924074470  -11.91687659250885   -0.02397094986712
C          -8.74850682698196  -13.20402780014528   -0.05247081127845
N          -9.16101347842212  -14.31574417306275   -0.76545622106793
O          -8.46110473533267  -15.31484130163837   -0.76124749702744
O         -10.24146675963992  -14.24830256197523   -1.37288235671924
C          -7.66495692202249  -13.27028892984754    0.89044534750437
C          -7.52212123081731  -12.06024114303403    1.48957896178576
C          -8.58712433167753  -11.20810935933187    1.05417539203263
C          -8.93643688430293  -10.03618386350230    1.70751265990542
C         -10.25632683694897   -9.62619969607064    2.07294514178207
C         -10.16312540494568   -8.59023076118821    2.95576786234329
C          -8.78329922587410   -8.24801594976877    3.11805305635581
N          -8.35891538298169   -7.16487259169946    3.92058392742900
O          -7.17220299019651   -6.89642822466286    3.95435439623872
O          -9.21537774989505   -6.58770522382704    4.56107060968692
C          -7.99780793220754   -9.10820592925547    2.35458218836066
C          -6.60835146853237   -8.98780742395626    2.10877096452117
C          -5.92429886097830   -9.39639072496614    0.99987290346156
C          -6.49750010380171   -9.85121636066219   -0.21063361969093
C          -5.87350196464312  -10.48238483207745   -1.24886625005519
C          -6.54799046325939  -10.58845488111277   -2.55815465749430
O          -7.72512237085227  -10.37986132796483   -2.79526615755380
C          -5.49652795332831  -10.95222391404012   -3.52131475010891
C          -5.57585735186082  -11.07435763386976   -4.88000005463337
C          -4.40128262763325  -11.34132002120753   -5.61841846065620
C          -3.16220366501855  -11.48443041387230   -4.92949425704591
C          -1.98887032879324  -11.71520420698033   -5.67336504645379
C          -2.04131748876768  -11.79421207312330   -7.03711426385269
C          -3.26824576939469  -11.65135048633737   -7.71672589576889
C          -4.42537248422334  -11.43317749247607   -7.02336496140010
F          -3.29466937750028  -11.72783355003860   -9.05221089368764
F          -0.92858112647570  -12.01236599997684   -7.74238745630871
C          -3.11695111512392  -11.39179880991586   -3.51892697132979
C          -4.26777588867909  -11.13478184486279   -2.82342596223029
C          -4.53073293627630  -11.01010654204349   -1.38997837892643
C          -3.71636209484538  -11.48340187113531   -0.39767637993976
C          -4.10583506805991  -11.63048317161220    0.95011996393332
N          -4.39052803379615  -11.83259351134080    2.04328537521695
C          -2.42170918606227  -11.99742737418258   -0.63019573674434
N          -1.35929678505680  -12.40789861739330   -0.76567338342398
H          -4.38057816589664   -4.98772072892233   -8.76678945219112
H          -5.29817034599093   -8.72172852023616   -5.64135703843309
H          -6.67659887161668   -4.18247900806668   -8.51147991296478
H          -7.67567507272366   -8.00715128598355   -5.46803394330259
H         -12.15882699135184   -3.97986705011248   -7.23418209026634
H         -15.29073663125796   -7.16722356746549   -4.82279763112137
H         -13.57982243285966   -6.84207903938250   -2.80680510503524
H         -11.01815354284000   -3.17578153513150   -4.48775140993013
H          -9.52643198332334   -2.60943445663074   -2.37248596108228
H         -10.43216649900231   -7.17251536184479   -0.82021979016709
H         -11.43799974668274   -7.94216982663774   -3.62184791424973
H         -10.18222232267615   -9.21029079511453   -0.15345478830172
H         -12.13165460630878  -10.85257559920860   -3.15493641248699
H          -9.45523075958481  -10.17031045791521   -4.42594619036039
H         -11.04409332595167  -10.06311919739604   -5.21059018188672
H          -9.63485696030279  -12.32197474083867   -5.60387807596596
H         -11.32463420928746  -12.51279238924406   -5.09604570385713
H          -7.09809201409197  -14.16275517693018    1.07616890462539
H          -6.82974367252830  -11.81437251324552    2.27061564105761
H         -11.15107940554356  -10.15072489911842    1.79486600983574
H         -10.96424795691318   -8.08654046564187    3.46229276096779
H          -6.05061495429818   -8.47296157003402    2.88168019237499
H          -4.84834853848016   -9.28681890713288    1.02038031455737
H          -7.52931480814937   -9.58192614236542   -0.41045008515127
H          -6.52144406076300  -10.96015566523061   -5.39087531294329
H          -1.04152282575550  -11.82459449297895   -5.16960332339471
H          -5.35462515421251  -11.32120009055547   -7.56062133517906
H          -2.16615429610707  -11.50927990006020   -3.02477029008691
