95
 SCF done       -189.634381920021          0.000397002232
C          -4.49499672484213    1.32300120482589    9.30435892697556
C          -4.49260186036541    1.32032388931779   10.67088802271658
F          -4.43895679774168    2.47570830854459   11.34655688841704
C          -4.54543596501518    0.10693595171726   11.38615885618937
F          -4.54033690953209    0.13501647880618   12.72577414263239
C          -4.60000662016539   -1.08765250774651   10.72449695890943
C          -4.60208115353409   -1.11823962620941    9.31635275376598
C          -4.54975639782379    0.10802141230427    8.59184066186144
C          -4.54950533143409    0.10205803309808    7.17835213072720
C          -4.59872516708978   -1.09360081871463    6.51086071677678
C          -4.64395952448756   -2.31297153061979    7.24214314592344
C          -4.64712560963707   -2.33898256411375    8.60698067248253
C          -4.65251310773276   -3.45354468124216    6.30371017001077
O          -4.63022155114669   -4.62780404707429    6.59754953965665
C          -4.58680486830109   -2.84988356505390    4.94661154881786
C          -4.60843799107779   -1.40653607512556    5.08540168986602
C          -4.70551212643189   -0.49500371051249    4.06698385214421
C          -4.81790420319434   -0.82393681321999    2.69894403860288
N          -4.93843089866610   -1.01577364349750    1.57363288910924
C          -4.74645432524037    0.90169286324998    4.26043010550624
N          -4.77722382170764    2.04499518742374    4.35743376460257
C          -4.33410780366601   -3.54945011530402    3.80196131661434
C          -4.41300599591063   -4.95462756521775    3.62981205829199
C          -3.64453760940383   -5.67626046570382    2.73759106156240
C          -3.94450477345029   -7.06239403275858    2.88054474756395
C          -5.04158728744610   -7.14323543140913    3.85380263717845
C          -5.30924473531014   -5.88686400367153    4.30065061717068
C          -5.78886524033996   -8.28210522373053    4.18501939877683
N          -6.46475773833158   -9.17404161654641    4.44016862202376
C          -3.29306842644033   -8.11980890110829    2.27832995000740
C          -3.44574986573016   -9.50037803304456    2.55336346384900
C          -2.57341347739433  -10.22768748975295    1.75494920424663
C          -1.84483737800010   -9.27734506580352    0.92428426394834
C          -2.25127198656712   -8.02063939842610    1.23964260984435
C          -1.75064789702196   -6.85711673134349    0.64485545462044
N          -1.30617425946969   -5.92897009670702    0.13422895942405
C          -2.42405495239912  -11.63237247961349    1.81965982031998
N          -1.70244154714167  -12.43371970767297    0.96487733372042
C          -1.00214740815651  -12.05563854883197   -0.23281978496908
C          -1.75057666433656  -13.78841914189623    1.34231076620370
O          -1.18901397661195  -14.67369389317909    0.72824108361570
C          -2.56823352492510  -13.80027001079369    2.53206929457189
C          -2.97321977376486  -12.47733888988468    2.79667338306564
C          -3.76802562893051  -12.48986667208949    4.01326812579384
O          -4.29285535419741  -11.61179381702940    4.65787447934990
N          -3.81518513840656  -13.85156785129366    4.37763654298300
C          -4.53595678271186  -14.29426658938474    5.54081450571937
C          -3.09896318112121  -14.64177037824598    3.52121314391951
C          -2.95687661295933  -16.03525206752660    3.69291145807781
C          -2.16750158671731  -16.80374885546545    2.89131362967793
C          -2.01662925743613  -18.19130484294190    3.11101022786133
O          -1.15428217355006  -18.91379930062562    2.34288026558629
C          -2.59870713570609  -19.05396399298222    4.02816629222362
C          -3.54517478919692  -19.14377873966268    5.14533147521308
O          -4.21203720779490  -18.29324103870380    5.68203381140789
N          -3.51634559571328  -20.48487373755062    5.49564587463018
C          -2.65053748366980  -21.28260875657038    4.73777292344672
O          -2.48828452271455  -22.46308521899167    4.89670739203858
C          -2.06047316055674  -20.33792943321254    3.78889545300929
C          -1.16039295537404  -20.21129812128452    2.74045700900263
C          -0.31924961190007  -21.17648113423505    2.13655009991525
C           0.56816698705240  -20.88204438114726    1.15554195006854
C           1.45184206502759  -21.81235153807681    0.56048240862682
S           1.50969177582817  -23.50382740469413    0.99240581933150
C           2.78299730084005  -23.80286062401673   -0.12289800092333
C           3.15352749800543  -22.67710093140821   -0.79659823820491
C           2.39557544954541  -21.53426290074034   -0.41268653448357
O           2.58736659583497  -20.31195776815276   -0.94266210646768
O           4.11741054047390  -22.51429798578855   -1.74568678918231
C           4.86296259900389  -23.65862449471177   -2.09202965164053
H          -4.45518094024563    2.26065881674228    8.77227690827640
H          -4.63936173638641   -2.00775952316262   11.28625193471985
H          -4.50197060630722    1.04545015531910    6.65888030520585
H          -4.68147704871418   -3.27859959242235    9.13720181447472
H          -3.98559868906325   -3.00283821148394    2.93305229234582
H          -2.88086157160247   -5.27263622724361    2.10102513119562
H          -6.08624068360472   -5.61258943092139    4.98672839209860
H          -4.11388677167803   -9.90812000137957    3.28667550360962
H          -1.08806270395444   -9.51053248869284    0.20204089534192
H          -1.64625638732867  -11.47769607884278   -0.89646270549785
H          -0.71421063429208  -12.98408955221305   -0.72879782354889
H          -0.09594988575880  -11.49163135004174   -0.00231601499959
H          -5.00705450271944  -13.41286107725596    5.97599183389223
H          -3.86193473186755  -14.74329857075768    6.27203085944256
H          -5.30345760779678  -15.02056287005694    5.27069794103180
H          -3.49068781659370  -16.49651346191854    4.51218158662941
H          -1.61635326175598  -16.37236005751318    2.06631086570648
H          -4.07638875940033  -20.86142717771886    6.24728415765722
H          -0.40866109312911  -22.18132356489922    2.52364514430360
H           0.64454781993920  -19.86873503564655    0.78375030486762
H           3.17663867432696  -24.79511137616951   -0.20822340256538
H           3.29893318458769  -20.37270918526701   -1.59537937219338
H           5.57848812135051  -23.33254373665762   -2.84411124228994
H           4.21804157440963  -24.43671144629102   -2.51036776650232
H           5.39672670149539  -24.05740728279040   -1.22452684746594
