122
 SCF done       -245.597480967741          0.000383165108
C          -4.12488478333612   -4.87308926320490    3.71168870707621
C          -4.92212272267180   -5.43296998908725    4.67031188674658
F          -5.06236570252753   -4.83777630885387    5.85948233473354
C          -5.60019378575281   -6.64402568280054    4.42383735259354
F          -6.36822883179011   -7.17347941970969    5.38241796870291
C          -5.46988160189141   -7.28012151796017    3.22163577735466
C          -4.66202121740635   -6.72368420641746    2.21194428358293
C          -3.97813099018638   -5.49697803165620    2.45760187170034
C          -3.18933188488870   -4.90325148764431    1.44606685305360
C          -3.11509230106965   -5.49796352329855    0.21384117169159
C          -3.81111414421444   -6.71593746101111   -0.02565455352318
C          -4.54847399178556   -7.33333972408254    0.94402231994032
C          -3.69249390307685   -7.07465716390319   -1.44581508233477
O          -4.01541370130829   -8.11326855697663   -1.97981820402805
C          -3.00693359971614   -5.91363104933354   -2.08456997342151
C          -2.50132237696879   -5.05544674814217   -1.03612704748388
C          -1.68308060005149   -3.96835977339345   -1.19213227219694
C          -1.19935987247059   -3.51021326950106   -2.43608082555238
N          -0.81079832062225   -3.07029132897098   -3.42174897547720
C          -1.22405559018045   -3.17359715928241   -0.12039499260614
N          -0.81559222869170   -2.50105238657128    0.71454558008298
C          -2.91681779935353   -5.78561703115632   -3.44899490211746
C          -3.87277816780091   -6.36828472649031   -4.29832163913603
C          -3.72693721003573   -6.95240926472139   -5.55321554691974
N          -2.52405473511154   -7.05801416037059   -6.27959267702487
O          -1.50976621222758   -6.61990682584146   -5.76468957041508
O          -2.57704028459795   -7.56927345169367   -7.38190960920040
C          -4.96736957920732   -7.52969547405153   -5.94363545814502
C          -5.88790497692350   -7.33143748407404   -4.94004126625587
C          -5.28608061245286   -6.58182514973005   -3.90837224658617
C          -5.82884057588356   -5.99986034240092   -2.76090239781337
C          -5.46395053479406   -4.71468296187447   -2.26196102569559
C          -6.07112350653893   -4.52368807821277   -1.05767805044952
C          -6.80987275203735   -5.69724505522539   -0.71334615622790
N          -7.38025448220719   -5.77138066872079    0.56369157195025
O          -8.18118054490892   -6.65288906013524    0.84349625108653
O          -7.01405519598236   -4.93362272728452    1.37721181831539
C          -6.73281554760041   -6.62221114210670   -1.78174287420376
C          -7.14214298880154   -7.95594146289323   -1.95182356676720
C          -7.80866662660238   -8.73958371589291   -1.04096730962286
C          -8.17235315978153  -10.07168568788738   -1.27893725174461
N          -8.72190140331352  -10.87731271512006   -0.31157776121767
C          -8.94560077030168  -10.52659934700082    1.07270129932410
C          -7.65445073212857  -10.59254921153075    1.88287127815462
C          -8.99428842113737  -12.17058416267071   -0.78318531837644
O          -9.47651387884455  -13.05233989409704   -0.11056074846111
C          -8.58751568182221  -12.13121067277855   -2.17925924661724
C          -8.09810416581668  -10.84634926260316   -2.45684421695611
C          -7.76966469453703  -10.79149918756015   -3.86815367087602
O          -7.35192957303191   -9.89775969878088   -4.57316356402646
N          -8.07806834808026  -12.07654962176226   -4.34913645827871
C          -7.83550732993382  -12.43249883511784   -5.72717257640486
C          -6.53567038868976  -13.21564965874308   -5.89075597826617
C          -8.55615534932238  -12.89570392365005   -3.35791065078219
C          -8.92907577106955  -14.23749443578372   -3.56183920461534
C          -9.34657568565589  -15.07601082708856   -2.56876259334213
C          -9.71058980820176  -16.41532913662138   -2.80923369076359
S          -9.72080895056226  -17.12414146078019   -4.41838386045754
C         -10.27675933086449  -18.67278748215379   -3.83279244797694
C         -10.43674376230691  -18.61444137375400   -2.45611834625993
C         -10.11895558183840  -17.37033286754437   -1.88695416530721
C         -10.28387801500132  -17.41399680344892   -0.42463875522987
O         -10.03734723200194  -16.55203120117539    0.37486640537264
C         -10.81285298949020  -18.81080217160785   -0.11288535142015
C         -10.86240545262130  -19.57311559896745   -1.42811229163915
O         -11.18029935294633  -20.72428873414998   -1.58378370222812
C         -10.54131032499209  -19.77599975493014   -4.67273596811285
C         -10.35708027907837  -19.76762253625143   -6.01901858407943
C         -10.68922890433738  -20.86656687656733   -6.84217961538777
C         -10.71548072371516  -20.90188269955974   -8.20381676102268
C         -10.72914286541332  -22.22064154073265   -8.90177188855212
O         -10.96460038759772  -23.29548540099762   -8.40440662136830
C         -10.33852272470107  -21.92470310934014  -10.29371784043903
C         -10.09084364504936  -22.79456327492111  -11.31641871085614
C          -9.69724522880560  -22.28312360710297  -12.57307941366639
C          -9.56063598217883  -20.87427508831402  -12.74237014979870
C          -9.16060000000093  -20.37010075078794  -13.99629083303961
C          -8.91092026763317  -21.22393634536180  -15.03384751009266
C          -9.04753925244323  -22.61729161810970  -14.86559283542048
C          -9.43256503550309  -23.13707861496218  -13.66144707315260
F          -8.79480219115480  -23.42922209525459  -15.89893966921334
F          -8.53238253251724  -20.74362809442679  -16.22387845359152
C          -9.82846620246549  -19.99779571828594  -11.66624224451770
C         -10.22017618923078  -20.51467264765298  -10.45977739574163
C         -10.59433438831233  -19.86342098340486   -9.20551013748883
C         -10.95932621311672  -18.54837473736492   -9.08253161802340
C         -11.57057036056995  -17.97489316056198   -7.94713618238374
N         -12.10239769006258  -17.44458814707640   -7.07901946182213
C         -10.85195563192282  -17.60476630758103  -10.12712933652070
N         -10.76403844632515  -16.78549133032662  -10.92588287393749
H          -3.61877092069041   -3.94269308432564    3.91599699531100
H          -6.00287335904307   -8.20139984399116    3.04683618895287
H          -2.68753388042202   -3.97386537244317    1.66260832969136
H          -5.06818757350477   -8.25544109559194    0.72955050080442
H          -2.11002527392171   -5.22578822278156   -3.90924646926490
H          -5.12654710653221   -8.03967307823711   -6.87488463841858
H          -6.92229831887034   -7.60882277678683   -4.98573559099838
H          -4.88187330704375   -3.99516358206366   -2.80619034744649
H          -6.02579466650378   -3.65091865242529   -0.43430868486524
H          -6.86208477580599   -8.40749994068785   -2.89337675427324
H          -8.07585938546800   -8.32382879862331   -0.08207851972338
H          -9.66085806924653  -11.25669564630449    1.46017282271405
H          -9.38624754378131   -9.52865722459113    1.13116648184055
H          -7.25686090352099  -11.60466897810544    1.87725569231217
H          -7.85484070582230  -10.30262418818891    2.91031186517711
H          -6.90689818593219   -9.92270731479141    1.46324768715725
H          -7.76500412104168  -11.48872459351238   -6.27476237492409
H          -8.68643166835763  -13.00010152635780   -6.11293698313970
H          -5.69662991084225  -12.62124270314305   -5.53782176342769
H          -6.37849244307449  -13.44763281689504   -6.94011782293075
H          -6.56391011158472  -14.14527283076744   -5.32653012043301
H          -8.87289086167027  -14.62386726866490   -4.57152080781843
H          -9.41506165966067  -14.73633759773491   -1.54123976160960
H         -11.80931000682422  -18.74968119215783    0.33095511794116
H         -10.18031060481510  -19.31936638689951    0.61752774064982
H         -10.94961804305379  -20.64835874310238   -4.17773023999033
H          -9.92997734343874  -18.88541157960604   -6.47684324503440
H         -10.89709373002849  -21.81066457964283   -6.34915801806784
H         -10.19388666742610  -23.85866891071663  -11.16821529121915
H          -9.05451433768975  -19.30663408301260  -14.14348871548329
H          -9.53240543113524  -24.20526389598047  -13.54889855939915
H          -9.70759330337834  -18.93773224587416  -11.82200019218972
