113
 SCF done       -241.781266811967          0.000415014102
C           0.30792984684557   -0.39484615670946   -1.34260677189098
C           1.61763837319704   -0.73184606201175   -1.14395873538583
F           2.58453827634633    0.16140484585265   -1.37521538553125
C           1.96683982220858   -2.02275327015987   -0.69432357491320
F           3.25636649798382   -2.32412416082309   -0.50977551277490
C           1.00064710930207   -2.95807264668741   -0.44921651897827
C          -0.35802149637969   -2.64102811901827   -0.64420585964439
C          -0.71228412233778   -1.33675031118022   -1.09975176111559
C          -2.06836556440807   -0.99690424471568   -1.30360937342765
C          -3.04222430137328   -1.93051037853110   -1.05928741668601
C          -2.67952821026072   -3.23090835518335   -0.59717405215369
C          -1.37572823255402   -3.58702503568915   -0.39409832040589
C          -3.89469678024504   -4.02703461632655   -0.38192843221822
O          -4.00114025598291   -5.17343563731211   -0.00375719699964
C          -5.02697729710673   -3.12109787709780   -0.71316648888881
C          -4.49261018834887   -1.85425607805862   -1.18880608009321
C          -5.21631395223159   -0.81336224059446   -1.69447594928467
C          -6.61666205034606   -0.85601264156540   -1.87444553133788
N          -7.74618198851351   -0.87514708405441   -2.07264340420807
C          -4.65322258093119    0.40326686696774   -2.13871518096259
N          -4.24318797516499    1.40609021414425   -2.51451365332818
C          -6.29542446917202   -3.49843338395459   -0.45515593188244
C          -6.59332813401986   -4.79391840137568    0.12535705272743
C          -6.84829034724690   -4.96123410451244    1.45993810848176
N          -6.80655149880284   -3.90645881914641    2.38709516759868
O          -7.01170199306840   -4.15417950470311    3.55593875832939
O          -6.56313004365046   -2.79286423999725    1.93801508711233
C          -7.04856691979797   -6.36570667139413    1.75824596627229
C          -6.95623895003002   -7.05006841057043    0.60001376526627
C          -6.70655594123219   -6.12574299527512   -0.48944026206186
C          -6.59100273807254   -6.40052498209614   -1.82773009457620
C          -6.10083345957003   -5.50006233809371   -2.84113196097685
C          -5.76708520572944   -6.21053202411786   -3.94480022543452
C          -6.10131182547404   -7.59270025057710   -3.72073759981670
N          -5.97404851848342   -8.57047230605480   -4.71801995858678
O          -5.39533401463306   -8.26247656474360   -5.74013526315805
O          -6.45273115027136   -9.68758580984662   -4.52055297828543
C          -6.67507603100852   -7.73016793664219   -2.45880693116208
C          -7.27134080753822   -8.93227349070547   -2.02054052482771
C          -8.40768097757914   -9.09872569598999   -1.28797472479613
C          -8.99172835191679  -10.37786185083251   -1.17703279319529
S         -10.20265552626386  -10.74464558167311    0.01350915321040
C         -10.33688345165263  -12.44542400832641   -0.44992712184565
C          -9.48040410157449  -12.66096971439224   -1.53181248912095
C          -8.75967126337935  -11.51748568896336   -1.94797671027253
N          -8.07191609319173  -11.86243233589275   -3.08063631508770
C          -8.34099391418469  -13.16911670323322   -3.37689660963483
S          -7.73103675631106  -14.02014200967191   -4.64914471614145
N          -9.22201908404848  -13.64208976263863   -2.44624340810977
C         -11.16561043187390  -13.28577190607203    0.32132308783231
C         -11.04042529139161  -14.62966119616732    0.70088116286068
N         -10.07684784624172  -15.56751947435118    0.35708773295534
O         -10.10729573666085  -16.65409962383912    0.91298091267629
O          -9.21294623198515  -15.26011674700613   -0.46404790082976
C         -12.01071919978875  -14.92248481162074    1.72037526201125
C         -12.70297984211880  -13.79405673400927    2.01567016982482
C         -12.27049997841304  -12.75037035133840    1.13806287686526
C         -12.91742158071578  -11.53996925055303    0.96759517921928
C         -13.16161304239191  -10.85766005653428   -0.27196159735697
C         -14.08922627700588   -9.88949284915742   -0.05843837709993
C         -14.40739282144483   -9.85776030767042    1.34598558656605
N         -15.28842919646129   -8.91156501260021    1.90938126190112
O         -15.82234295301847   -8.12860950710867    1.14648200096538
O         -15.47412468794531   -8.94070402641685    3.11300531322429
C         -13.69741035836807  -10.84799812081803    2.00446111071120
C         -13.62811660021029  -11.08045575797825    3.40958222253964
C         -12.56013435471283  -11.56096267769203    4.09507361625043
C         -11.24480437544226  -11.69516429867596    3.54761981616531
C         -10.27847456103550  -12.62388568613692    3.75957200541739
C          -9.11798475788699  -12.61779581198943    2.82007047772362
O          -8.74941114450396  -11.68129214968892    2.14093769869811
C          -8.59719315756058  -13.98788672648404    2.82112348909879
C          -7.64733388284861  -14.54460403861028    2.01035314480059
C          -7.39031313751740  -15.92901506925391    2.10648808172501
C          -8.11740505744319  -16.70971282036003    3.05264983886468
C          -7.88441993769639  -18.09676777141355    3.11811918124270
C          -6.97957596732867  -18.68182284997084    2.27749673406351
C          -6.26510341937184  -17.90903557546999    1.33919322515603
C          -6.46224161843699  -16.55939591951878    1.25637796625946
F          -5.38579037877881  -18.51078470431059    0.52993177846853
F          -6.75913028784260  -19.99958029180030    2.33855045675727
C          -9.07159268433132  -16.10031165326706    3.89868381018635
C          -9.30953891886155  -14.75618653035496    3.78699959058220
C         -10.22952400394756  -13.87394859714310    4.50275186939934
C         -10.79199838321646  -14.16308190337757    5.71388788842694
C         -11.48845209002761  -13.24121020729005    6.51956399160463
N         -12.03505325733246  -12.52003596785610    7.22554251572541
C         -10.65621610363236  -15.41023255469037    6.36437611420726
N         -10.59196340132636  -16.40172651678342    6.93734342237166
H           0.05861870460557    0.59674827662127   -1.68678756266564
H           1.28438378028556   -3.94019958825397   -0.10482703001734
H          -2.30613394302485   -0.00191102293963   -1.64410354221934
H          -1.12581727815430   -4.57689992447096   -0.04368660654676
H          -7.12986232103689   -2.82309890031504   -0.60121307277867
H          -7.21178743490786   -6.74555242914325    2.74815855475791
H          -7.00791924704128   -8.11404694917825    0.49139274867758
H          -5.98319925181728   -4.44389504950679   -2.70872966007826
H          -5.34514918434482   -5.84545656139704   -4.86196236025833
H          -6.83108119444767   -9.82128733373248   -2.44600277949408
H          -8.91291629901534   -8.27037475120501   -0.81372687395497
H          -7.51306487663833  -11.26275185104661   -3.68020289153528
H          -9.40584284046168  -14.62610146831144   -2.29397229253345
H         -12.12815897395273  -15.89890962414544    2.15085870254923
H         -13.52091863288276  -13.70721184378547    2.70307233521229
H         -12.77500334603139  -11.17067720159438   -1.22233692141935
H         -14.54123151683274   -9.23841409731993   -0.78216225053112
H         -14.52366670761184  -10.82758816677189    3.96407855165064
H         -12.70531090341209  -11.80347392846505    5.13732507345794
H         -10.97963286420776  -10.95958082076421    2.79097760368997
H          -7.12141742597323  -13.94323435951263    1.28432701217758
H          -8.42741382735963  -18.70396716872895    3.82492559008073
H          -5.91890018315510  -15.98256038873141    0.52476369910858
H          -9.61321063630382  -16.72100021738035    4.59367001424191
