120
 SCF done       -244.839956160132          0.000410933672
C          -2.83093119361395   -2.81146878865779    2.52557213395028
C          -1.70685145391826   -3.58189399871365    2.63060034921635
F          -0.54705945580813   -3.03293798705198    3.01029451913085
C          -1.75277123341808   -4.96092942730819    2.34066378405777
F          -0.63599918374290   -5.69165584709685    2.45051053405808
C          -2.92265107688758   -5.55035876933819    1.95109917849149
C          -4.09857313883537   -4.78355431342925    1.83475909045170
C          -4.05271644067605   -3.38850346358125    2.12459840985055
C          -5.21883562926264   -2.59833296557917    2.00876295343723
C          -6.39245462901933   -3.18589561464397    1.61614353509811
C          -6.43380761258746   -4.58256838554406    1.34067536247601
C          -5.32217267240076   -5.36967574068053    1.44229852091806
C          -7.80785331387300   -4.97538889042285    0.97904104858873
O          -8.20425847722515   -6.09470394713542    0.72936771767856
C          -8.61245224224106   -3.73166420821682    1.08260454522337
C          -7.72159065044244   -2.63018069906487    1.39507985025417
C          -8.05367988120280   -1.30371678594953    1.36576605093328
C          -7.15110436115732   -0.25797213456702    1.65184762681889
N          -6.45369120113812    0.62416656197551    1.87938787075394
C          -9.32339588180590   -0.82697451626687    0.97270760243351
N         -10.31956133790602   -0.39136709471123    0.60581802363235
C          -9.97154010157311   -3.71776933079007    1.09409605808868
C         -10.78396885041170   -4.81266641787763    0.67957807657356
C         -11.82360945121482   -5.38825316402297    1.39540375234844
N         -12.25270318179971   -4.98303905619048    2.67075310165974
O         -11.61229535462912   -4.10720631300733    3.23302220499302
O         -13.23707742156914   -5.52602696273348    3.13632301674150
C         -12.33729244782289   -6.51737891443803    0.67558432904762
C         -11.60431536649112   -6.66473670370192   -0.45889942360650
C         -10.62174708887587   -5.61384673453750   -0.52497520669266
C          -9.81980247757738   -5.28106542692591   -1.60549180485737
C          -9.45503536674049   -3.96517011435500   -1.99835460365093
C          -8.94028646583175   -4.00823324114703   -3.26456610035690
C          -8.88825967981358   -5.36580592498689   -3.70121564850295
N          -8.31461574602061   -5.75170929912028   -4.90546442661824
O          -8.20711131978453   -6.95462056868519   -5.15186553354421
O          -7.92783204658799   -4.88183056401311   -5.66970535189728
C          -9.37895506856215   -6.19443891550387   -2.67842479881568
C          -9.34909929683355   -7.59301037050849   -2.62455129304134
C          -9.36737769921539   -8.30238300956333   -1.44646358752975
C          -9.49771999687552   -9.68995672401366   -1.26247721862247
C          -9.96533736717343  -10.18176944238796   -0.03879519246792
C         -10.30151415472712  -11.53898525230824   -0.15202733405277
O         -10.77419000417878  -12.17538420216912    0.91392773320336
C         -11.25881224118383  -13.50224469846671    0.85677214853048
C          -9.96206317134235  -11.97068975700390   -1.46643509026488
C          -9.48311134475266  -10.81238716172692   -2.19276829945709
C          -9.13276924720642  -10.84166192045027   -3.53309687853561
C          -8.16477933628416  -10.08982721815483   -4.23634976825294
C          -8.14495510845291  -10.53379828835042   -5.54231273729848
O          -7.37312008260431  -10.22404765031872   -6.55671094466741
C          -6.40589927651774   -9.20042219465265   -6.38520303162126
C          -9.19726817258625  -11.54757583154914   -5.71172532043614
C          -9.76173821446520  -11.75804568304522   -4.51774238673760
C          -9.84408898855443  -13.30911442755255   -1.90710486812189
C          -8.89713230791214  -13.75908388159638   -2.78459638631163
C          -8.82797862892023  -15.09225783673311   -3.23364615176098
S          -7.50928439258796  -15.57858477391746   -4.28191924790322
C          -8.06683655025489  -17.23742616392634   -4.39845731889725
C          -9.22643518122037  -17.36273973547639   -3.65880587090731
C          -9.65363254158928  -16.18995668092059   -3.00839292202100
C         -10.86168751026418  -16.53229184679706   -2.26138237995703
O         -11.55801687439662  -15.86782441895331   -1.54447800071022
O         -11.12112900333543  -17.86250570572959   -2.50093817627644
C         -10.17353063372053  -18.43139357661216   -3.33350876341043
O         -10.20870510153759  -19.57560490275723   -3.66734269874989
C          -7.37816736770170  -18.25823855136233   -5.08814402618511
C          -6.17591606978265  -18.08817824428315   -5.69658373083836
C          -5.46341353329126  -19.15816448969399   -6.28511662494502
C          -4.15632926342257  -19.17052433676429   -6.66779051705006
C          -3.66419228509202  -20.25060405482824   -7.57095032994024
O          -4.24288816348116  -21.27249126011444   -7.85264005887117
C          -2.36215368263875  -19.77146587160919   -8.07400350021058
C          -1.54110259280975  -20.34359350353371   -9.00262218180906
C          -0.33448529383118  -19.69416682159645   -9.34607133388790
C          -0.00782910940492  -18.45352662321518   -8.72472553247861
C           1.19568654930808  -17.80822916389523   -9.07367259354060
C           2.03697529427307  -18.37015155910243   -9.99255340804462
C           1.71342616527006  -19.59804704021096  -10.60552478946371
C           0.55244121825386  -20.24700809525328  -10.29027240564945
F           2.55606991639196  -20.12406499076981  -11.50249700753265
F           3.18058850485115  -17.75744463344460  -10.32042089553557
C          -0.87706431448239  -17.88604684938990   -7.76531430225255
C          -2.03452733867857  -18.54043598550663   -7.43589008700304
C          -3.07597415178022  -18.22980343044543   -6.45794736498077
C          -2.93590871102819  -17.35415123944788   -5.41271909674589
C          -3.80820218470958  -17.26190531377049   -4.30731146834924
N          -4.44435750652447  -17.16108265461681   -3.35703345224823
C          -1.83119927770194  -16.48915594465750   -5.25849968470185
N          -0.97453439761606  -15.74325620169791   -5.09510688676811
H          -2.77830495123608   -1.75748921679080    2.74960846188348
H          -2.94082336426022   -6.60701727667062    1.73453438782212
H          -5.15731825631865   -1.54713961576168    2.24055818431945
H          -5.37597915321220   -6.42623728261436    1.22745088238446
H         -10.49469346490831   -2.86298069792269    1.50799543091701
H         -13.15986874550576   -7.11697332038760    1.01492239841501
H         -11.78041427463042   -7.37467463092059   -1.24355880427207
H          -9.67164315357767   -3.07636085316473   -1.43708371747426
H          -8.61780917942796   -3.17760813189545   -3.86427760655935
H          -9.27021118581655   -8.10980050406143   -3.56985819697416
H          -9.31074379140158   -7.73711679171874   -0.52445384709282
H         -10.11903066180926   -9.59626316131784    0.84763351265163
H         -11.69413239775566  -13.68961351352591    1.83759484038218
H         -10.44736328501861  -14.21367229348498    0.68429538674777
H         -12.02770320210249  -13.62564482524728    0.09195941721383
H          -7.49336859330647   -9.38098079809220   -3.79531640994646
H          -5.93929574839640   -9.06003707685486   -7.35750194243549
H          -5.65361109578052   -9.50187583521891   -5.65216926434884
H          -6.88845946399665   -8.27679721051222   -6.05887808581157
H          -9.43589118861467  -11.99426005479597   -6.65684430341791
H         -10.60913781121801  -12.37662988280446   -4.29677999438337
H         -10.51778697907166  -14.04398542498094   -1.49397764160245
H          -8.11534097687099  -13.09900848434179   -3.13164241257949
H          -7.83849307065007  -19.23731947289428   -5.04536637746453
H          -5.74147780367332  -17.09753243294058   -5.72151415881344
H          -6.01754782417018  -20.06690499410775   -6.49696280117798
H          -1.80750535928141  -21.28112597748488   -9.46626949944184
H           1.46075538354674  -16.87011159652340   -8.61155530828295
H           0.31946890247379  -21.18578197409516  -10.76783043496008
H          -0.60653077832118  -16.94290178565026   -7.31838517826391
