106
 SCF done       -218.675386311103          0.000365673136
C          -2.96843970872495   -3.89639150512101    8.67721909622079
C          -3.99527459573421   -3.51577393172677    9.49509245213573
F          -3.73908892447824   -2.89104116654267   10.65129618579035
C          -5.33323981203478   -3.77462876736432    9.13504126581985
F          -6.31965506507693   -3.39104581258932    9.95626700298042
C          -5.62567706492991   -4.41089102586815    7.96138003725461
C          -4.58953884651664   -4.81602549654931    7.09765116670612
C          -3.23602921076864   -4.55417522015294    7.45984750185751
C          -2.17931797921097   -4.94934429539592    6.60731545343412
C          -2.46839997949179   -5.59048428180004    5.43202648207529
C          -3.82294886719900   -5.85693735797002    5.08353816925509
C          -4.86433281929228   -5.48092880872023    5.88221147159856
C          -3.86206022698585   -6.57364557049709    3.79651053690916
O          -4.85825163079539   -6.90849859908120    3.18383069653109
C          -2.45693836954163   -6.81485552319622    3.42852013927941
C          -1.61017274801212   -6.09708281479124    4.36479298110440
C          -0.27280597465490   -5.84657327253859    4.22160875747317
C           0.48913305647944   -6.18607972478620    3.08095065739729
N           1.15160686945160   -6.37639095965060    2.16389232241336
C           0.49424511211113   -5.13366392942054    5.16714874442366
N           1.15872389815385   -4.56653473210034    5.91131093126449
C          -2.02492526582791   -7.70369402460557    2.48371276285031
C          -2.77870840919613   -8.45313715454722    1.56185585401588
S          -4.47757179741969   -8.29102989106993    1.17225979760015
C          -4.40917242308038   -9.54150474504481   -0.04518065309213
C          -3.11774839003896  -10.07150837364552   -0.12479908890577
C          -2.22597590725938   -9.45322902127470    0.76650136562860
C          -0.88979115885252  -10.05352127797358    0.68690691945773
O           0.06735013596366   -9.82235380141975    1.38162634561731
C          -0.96945111713397  -11.07082901182519   -0.43954399628484
C          -2.42287796211685  -11.10787087184013   -0.89177438788027
O          -2.87310041787565  -11.86637694051578   -1.71835368929730
C          -5.60319509878993   -9.86564959984069   -0.72279595568767
C          -5.75109325319673  -10.87686943704501   -1.62117033976044
C          -6.97205120572837  -11.19762217704128   -2.24218646864723
S          -8.45078029558212  -10.27952567796407   -2.01849854801484
C          -9.39952558922440  -11.34499847639121   -3.01374748415527
C          -8.59214971936764  -12.37113323292740   -3.50422204431651
C          -7.24013406510113  -12.26991329274140   -3.07816151933470
S          -6.31458171521368  -13.57064278119731   -3.73697212558668
C          -7.79431449915704  -14.12374794230447   -4.51161214240790
N          -8.85020714328174  -13.43572117994484   -4.30995458575545
C         -10.77623791452640  -11.10097896283002   -3.21417694386480
C         -11.57392107275333  -11.98050278028753   -3.87234879515370
C         -12.97044335651185  -11.88918278087765   -4.11461282410760
S         -13.71001705352991  -13.41745844207124   -4.51181405530354
C         -13.91901308815861  -10.86288551231307   -4.11330620904154
C         -13.65028922848026   -9.42202843502303   -3.91230423712397
O         -12.56057889125813   -8.94727954273235   -3.63967859272841
C         -14.83494657800125   -8.59463446966538   -4.06880731448957
C         -14.94330992673701   -7.22286204682488   -3.98342850025119
N         -16.23800183155558   -6.87778007467038   -4.17694128633587
C         -16.73797866511900   -5.52721090114121   -4.23841559752278
C         -16.67734223488295   -4.98653360754283   -5.66544118073835
C         -16.97564519734607   -7.99082169801614   -4.39622882759630
C         -16.14289240456765   -9.08758805782250   -4.33435371562660
C         -16.43559059360106  -10.49312246958216   -4.52225677633132
O         -17.54221925621258  -10.93908683419324   -4.76687511506287
C         -15.22741253158529  -11.34043837910643   -4.40116084695610
C         -15.29042688032047  -12.70809199816195   -4.62545152597914
C         -16.45603699348899  -13.49765431374276   -4.81360224273651
C         -16.56695141152976  -14.68401358797292   -5.46432188791307
C         -17.70952404816594  -15.59431455934716   -5.16610209857761
O         -18.71932210144038  -15.32304876040449   -4.56353572152232
C         -17.29659421424297  -16.91040184986697   -5.69912572922488
C         -17.92333174250387  -18.11683598239931   -5.57720636578214
C         -17.32137090780575  -19.26371744926277   -6.14160993550534
C         -16.07373566365074  -19.13762886986305   -6.81939664524423
C         -15.47414073480986  -20.28842691409901   -7.36979840948866
C         -16.08509270234466  -21.50533817836702   -7.25558775912962
C         -17.32003678621416  -21.62829416834117   -6.58748658338637
C         -17.92652127309138  -20.53174685520032   -6.04215558587144
F         -17.89533982778041  -22.83431489345160   -6.48980007146849
F         -15.51307159603035  -22.59768947696523   -7.77885494523046
C         -15.45221622888327  -17.87364325238499   -6.93780543668062
C         -16.05879735248682  -16.77471010868610   -6.39059299897203
C         -15.67620018521750  -15.36602994095759   -6.38169683466091
C         -14.81350981197886  -14.76904985579781   -7.26131855355315
C         -14.67907130346131  -13.37022891331200   -7.39157816299019
N         -14.57244708852429  -12.24020196341693   -7.56081385388439
C         -14.03004853485272  -15.48080385284874   -8.19246676415573
N         -13.36214035127725  -16.02098876243824   -8.95354255909053
H          -1.95031149484387   -3.68905956321158    8.96748076473841
H          -6.65469271929011   -4.60221384600563    7.70011236286322
H          -1.16580469354637   -4.74132606339844    6.91018034178055
H          -5.88259502850648   -5.69090136628397    5.59211462003348
H          -0.96311033798733   -7.92361931141782    2.43846466915381
H          -0.62576683994453  -12.05604411537734   -0.11868871554713
H          -0.32341294956658  -10.77018513993995   -1.26793405743974
H          -6.46452353116960   -9.25853604492478   -0.47089516116611
H          -4.90663320768911  -11.50374330287953   -1.87935943235954
H          -7.77541035575675  -15.00616072795182   -5.12077034256244
H         -11.17191851740039  -10.17950563527496   -2.81650811655040
H         -11.12020326975227  -12.90473367329449   -4.21119846106060
H         -14.18033543247283   -6.49377862851769   -3.79540511311274
H         -16.13427958615696   -4.90272208490029   -3.57516540105779
H         -17.77058329189680   -5.52222545247010   -3.88024119896738
H         -15.65200627410731   -4.98542855214902   -6.02704462310214
H         -17.05899759619373   -3.97002655326552   -5.69383297283555
H         -17.27689450633497   -5.60368159053293   -6.33001386286104
H         -18.03170317867813   -7.95097781144890   -4.57532197349990
H         -17.35481393821211  -13.13829404948185   -4.32050923214435
H         -18.86500325187450  -18.19572442245811   -5.05575527715545
H         -14.53096102623258  -20.21149588219315   -7.88768484250501
H         -18.87140052562558  -20.64226105117026   -5.53364214960128
H         -14.50509269671619  -17.80561392474245   -7.44896240364875
