117
 SCF done       -209.279045366307          0.000305937549
C          -4.20697568070518    2.81435867379590    7.91243429248467
C          -4.91239044965430    3.15202305845053    9.03294379066291
F          -5.08112534943751    4.44039126537637    9.36003422917017
C          -5.47014567352131    2.15435337607253    9.85756906621177
F          -6.15703858480136    2.51537355779226   10.95040024045447
C          -5.31494156925805    0.83194688853142    9.54982343807023
C          -4.59301812021707    0.45178347095281    8.40173724262837
C          -4.02714764378979    1.45939423768232    7.56781056783236
C          -3.29313457009968    1.10219547580678    6.41384444786349
C          -3.12794731442970   -0.22266697522977    6.10485504346439
C          -3.70411660845326   -1.21963669307761    6.93734391986656
C          -4.41894090553125   -0.90681503664780    8.05731888121333
C          -3.41025391179035   -2.55863156085756    6.38671296189331
O          -3.79486550468724   -3.60956193122035    6.84973845123561
C          -2.62617152200991   -2.31921426462181    5.14793677531535
C          -2.41741451031618   -0.88698770774411    5.01624225025749
C          -1.62219465045611   -0.25318037787242    4.09636078206536
C          -1.45519864782177    1.14655431404248    4.03229517047353
N          -1.28148013627699    2.27603695974765    3.92273886355436
C          -0.82201389043947   -0.88152733815722    3.11747265842400
N          -0.11682309510202   -1.30095183391716    2.31408003081967
C          -2.26346645056214   -3.23434750511481    4.19536828804122
C          -2.26784549245974   -4.64695909931900    4.21082469781477
C          -2.03716339312964   -5.40131547705769    3.06931202430865
C          -2.06160353066872   -6.78207266169996    3.40363231399517
C          -2.28375896838929   -6.84360041874065    4.85539936570714
C          -2.40209374649396   -5.57334952868671    5.32645301401324
C          -2.27181095744191   -7.98946653107019    5.66215241200336
N          -2.22279636563136   -8.89613606702389    6.36518221326604
C          -1.89069276297095   -7.85729540166563    2.55252969625307
C          -1.97800717122866   -9.23123527206172    2.87524428424302
C          -1.63017932399680   -9.98825947829579    1.76559973556190
C          -1.33642000728510   -9.06341711922989    0.67875704130079
C          -1.51746873723044   -7.79401663707602    1.12673388314842
C          -1.36471567794544   -6.64715429640927    0.33915566746269
N          -1.24093040234349   -5.73428874673986   -0.34678095581105
C          -1.60098915321695  -11.40189434656676    1.76601419772550
N          -0.94407821048009  -12.23567922973830    0.89403209583970
C          -0.04387696685543  -11.88314346574588   -0.17995613822159
C           1.22223311717784  -11.20080397653959    0.32688832472661
C          -1.10563683339281  -13.59079645454635    1.24328994082340
O          -0.59149819034777  -14.50375056488942    0.63034726021069
C          -1.97001505904207  -13.56696702456512    2.40231489103923
C          -2.24992247425983  -12.22305815823618    2.70276540131111
C          -3.18266245636642  -12.19563149366366    3.81665242874550
O          -3.74087243989661  -11.29281860469246    4.39501184678224
N          -3.36807496965360  -13.55542983876251    4.14010474692106
C          -4.25456331700781  -13.94373746321922    5.21086228704331
C          -5.61830124048722  -14.38598440833406    4.68618576576752
C          -2.66190776546734  -14.38914100176531    3.31119051260739
C          -2.66161323025168  -15.79193967068935    3.41635633968278
C          -1.90891746488154  -16.59394879993381    2.60336696881618
C          -1.86400776690094  -18.00152576340394    2.67983744707259
C          -1.03774799853706  -18.81491355592475    1.91740593394660
C          -1.25177989114363  -20.17075439137851    2.27366539732188
C          -2.29846567243072  -20.15756610307427    3.31020471379668
C          -2.64691399655985  -18.86407564709786    3.54783010983280
C          -2.87187868049988  -21.26630153406166    3.94097050807886
N          -3.37373077011466  -22.15541430964347    4.46952079108187
C          -0.61060768317340  -21.28930875406923    1.78131132439547
C          -0.79943706051326  -22.63768371708768    2.17528314442879
C           0.06025782202571  -23.45265951016318    1.47034495291266
C           0.82424130332171  -22.60305908699361    0.56450421109198
C           0.43290325802875  -21.31447440860730    0.73462715772183
C           0.93779190277377  -20.22553885235792    0.01753387208417
N           1.38184827739356  -19.35934329878041   -0.59307699901304
C           0.15795809037623  -24.88152296228160    1.58107466556465
C           1.32502247577891  -25.60304922983962    1.22383252625445
O           2.39611724571367  -24.88332228799759    0.80966906401870
C           3.60403910771503  -25.54587460777705    0.51898139355719
C           1.33057028982396  -26.98343945646553    1.35197653308070
C           0.23218730841107  -27.69419099567693    1.82504400541814
C          -0.93304482709423  -26.97334894681132    2.19334362109303
C          -0.94217473031530  -25.59820805838042    2.07051669273059
O          -1.97648984905692  -27.70540906009937    2.64624704062348
C          -3.17065916618538  -27.05039838241095    3.03841938088816
C          -4.14507285426420  -28.11953185092279    3.50586387359191
C           0.23064675343733  -29.14112246265897    1.94534029343264
C           1.28400645613297  -29.94744007143123    1.84261811599081
H          -3.78519484738029    3.59039962935985    7.29294364342791
H          -5.74809785846762    0.08010983550306   10.19078616922384
H          -2.88309244611390    1.88913903009967    5.80219615571235
H          -4.84340694758031   -1.68619647294073    8.67182312353705
H          -1.90942851672640   -2.82857977206735    3.25383185360858
H          -1.89069960758774   -5.00850036837465    2.08128863786136
H          -2.55929242039576   -5.29076613966174    6.34833157485853
H          -2.26254726320940   -9.61844944021882    3.83298815710076
H          -1.07309547035259   -9.32823315175733   -0.32683445080116
H          -0.56320901419052  -11.26234302148330   -0.91413425249099
H           0.21670062631456  -12.83151805621019   -0.65998939468995
H           0.99306976246546  -10.26587245329740    0.83370135282868
H           1.88177746397974  -10.98914538966954   -0.51002946948967
H           1.74356571458467  -11.85346083960867    1.02307319772574
H          -4.37476965092097  -13.05722052770066    5.83966553211035
H          -3.78657327247785  -14.73462550393779    5.80328661093242
H          -6.08873559523947  -13.56929613770551    4.14446074187705
H          -6.25912285935643  -14.66410814629313    5.51816133293230
H          -5.52454128305128  -15.23718898549536    4.01501921066850
H          -3.27344049663483  -16.23489711867401    4.18848980620799
H          -1.28849704674491  -16.13801455657139    1.84261057059288
H          -0.33722774273539  -18.47055454141085    1.18171866518026
H          -3.38950539264655  -18.53804813287362    4.25222253153017
H          -1.47703643347540  -22.94550262861411    2.94589806605899
H           1.55277942955301  -22.95523132337974   -0.13871589485412
H           4.30859359381840  -24.76053993367386    0.24917755681012
H           3.49302430361687  -26.23604066582119   -0.32309342143479
H           3.98386703997769  -26.08710658102861    1.39062774711075
H           2.20644712388921  -27.54142469632406    1.06733882805904
H          -1.82617992590755  -25.03869305451980    2.32529631720103
H          -3.59217490824684  -26.49792433494222    2.18802885322418
H          -2.96240106576763  -26.34309926425801    3.85160498246219
H          -4.34920773984299  -28.81748447514119    2.69832196546390
H          -5.07525318244012  -27.65553121784961    3.81959745460390
H          -3.72133043147185  -28.66943517472626    4.34165395194958
H          -0.74080292595512  -29.56476921951796    2.15724074523635
H           2.28458198126434  -29.59149929996586    1.66445032406150
H           1.17858594282183  -31.01300935732191    1.94875779819189
