122
 SCF done       -241.606208066041          0.000607900152
C          -1.85028658570639   -5.29306874184182    3.27536075479462
C          -1.77866617978915   -6.20012627306373    4.29516083688392
F          -1.16363774904600   -5.87844694512954    5.43842270737488
C          -2.34320430962216   -7.48434987639741    4.15619982208489
F          -2.25121592044146   -8.35292153638740    5.16907911743087
C          -2.96979216295243   -7.84576398423603    2.99663914586641
C          -3.06475805481277   -6.93099198661097    1.93102998974606
C          -2.49924886330888   -5.62987301378599    2.07172528848903
C          -2.61661972713824   -4.68425413258401    1.02772043107509
C          -3.31295967274276   -5.01581078585455   -0.10447960947421
C          -3.88718391568460   -6.31176471454699   -0.23054740639644
C          -3.75017999803582   -7.26121259551853    0.74115289833987
C          -4.69481694186180   -6.36956394419146   -1.46007541041730
O          -5.18798376470912   -7.34933032149529   -1.97728644008493
C          -4.68047284898311   -4.98019985551450   -1.99979965391422
C          -3.70572320764559   -4.21726757596312   -1.26290076810590
C          -3.31455203661904   -2.92873303602943   -1.52736642817410
C          -3.83314985381529   -2.14889941339853   -2.58147757250755
N          -4.25755761030431   -1.45631438839839   -3.39205677604905
C          -2.35291162670742   -2.22969661009921   -0.76958898885149
N          -1.57150739341742   -1.61831024113592   -0.19288364518170
C          -5.47135580298092   -4.60183103066655   -3.06935318939635
C          -6.73876427573890   -5.15183765940736   -3.25410575050466
C          -7.48485325393513   -5.38675494334145   -4.41652783674765
N          -7.07274158886940   -5.09572647084173   -5.73087616767987
O          -7.86416655533184   -5.30687994331606   -6.62950583719364
O          -5.95498878659954   -4.63297656255626   -5.88528807103888
C          -8.67721873466853   -6.05838438487741   -4.06839335850665
C          -8.69142084655793   -6.26452091783204   -2.69937424802926
C          -7.53790890870650   -5.69817856908220   -2.13790696373358
C          -7.15896667155261   -5.49450786838725   -0.79828429963418
C          -6.69572663446143   -4.24724770740853   -0.29243756004608
C          -6.38195997082312   -4.38184043670345    1.03392387056883
C          -6.59052717483096   -5.73427055260211    1.41134416053345
N          -6.15933490718268   -6.23735117711771    2.64060692934784
O          -5.55897526006685   -5.47277277668225    3.38213188873857
O          -6.35167203285788   -7.41798219352025    2.91017508365910
C          -7.11399817872761   -6.45228414752586    0.30900763532315
C          -7.30136122166205   -7.83860483440314    0.27027262854751
C          -7.53338099775472   -8.57748495312998   -0.86589267491289
C          -7.64936108307761   -9.96248503410190   -1.01297778338141
N          -7.55618595813493  -10.99734049773706   -0.11243601548449
C          -7.40055780002777  -10.92842206137761    1.32386403063631
C          -8.70297295581159  -10.54225125180761    2.01834668212283
C          -7.67993988909425  -12.24879690300241   -0.74005239507952
O          -7.62288761164942  -13.30692670195351   -0.14834623568665
C          -7.87024678762496  -11.94236829181232   -2.14900450443971
C          -7.85772636714673  -10.55378439911049   -2.27846542166783
C          -8.06751560101696  -10.21359645000736   -3.67396472966831
O          -8.18660893804460   -9.15317682820559   -4.24281180037757
N          -8.14856515561337  -11.46763240317388   -4.31574753685078
C          -8.38517414125639  -11.56723722620847   -5.73694455541435
C          -9.84077912313952  -11.90235954777575   -6.05073723707069
C          -8.04826706299659  -12.50951690062378   -3.43187972410628
C          -8.10630475433944  -13.86373665160353   -3.79926366911560
C          -8.03845400750574  -14.86523150637118   -2.87120278384952
C          -8.09705368878085  -16.25252098282603   -3.14840352212676
C          -8.01999998135819  -17.18466307336537   -2.09519138010642
C          -8.07217172716587  -18.58590581816187   -2.27238301420879
N          -7.96127002454917  -19.29175073688459   -1.11768178136146
C          -7.84374794637545  -18.53111655399914   -0.09908624075799
S          -7.84064581491363  -16.81841109140273   -0.41088480280493
C          -8.23546047261866  -19.15407987330653   -3.55927819200584
C          -8.29504160535756  -18.22205416448953   -4.61144913197557
C          -8.22943212050039  -16.82348813150100   -4.44086303007612
N          -8.30379307803261  -16.12308918334652   -5.60606619065546
C          -8.41212933184914  -16.88949374783671   -6.62212568152128
S          -8.44356766011965  -18.59692249161311   -6.30116233947845
C          -8.32794149629769  -20.54290446446036   -3.82946680594442
C          -8.31048784441060  -21.53812401109491   -2.89523868609817
C          -8.34666535589554  -22.91146183444350   -3.20488221047059
C          -8.82640795589147  -23.94276815166386   -2.39999520586741
N          -9.26610331076364  -23.86818372545001   -1.06515440420194
O          -9.26868576775475  -22.78308957506625   -0.50675694192543
O          -9.61932681733385  -24.90890879888317   -0.53867621328037
C          -8.87797119577169  -25.15637182999916   -3.16234128734036
C          -8.47013071623027  -24.89818821571964   -4.43380400541913
C          -8.04753692353496  -23.52929773930119   -4.51478097652533
C          -7.30643236049891  -22.96545483530129   -5.52945663383007
C          -6.27231488611551  -21.96816160059554   -5.36747736965351
C          -5.60007592165555  -21.84561162728216   -6.53330335717832
C          -6.22678343791869  -22.70049803844562   -7.51791589572659
N          -5.80380461706312  -22.73014814600576   -8.86134813874037
O          -4.86527513946674  -22.01425061975516   -9.16312847116355
O          -6.38754565301203  -23.46022838715191   -9.64405835817263
C          -7.26651947735907  -23.39626458752536   -6.93510787796074
C          -8.22184998336147  -24.23888467618725   -7.60028658331382
C          -9.50548981439119  -24.35480734239290   -7.25649086060099
H          -1.41980213546114   -4.31227026959572    3.40234679276779
H          -3.40993459305166   -8.82667537761373    2.91086495836062
H          -2.17733196369051   -3.70903178772118    1.16310645456093
H          -4.19684703262098   -8.23703493234839    0.62306244173502
H          -5.13031222384326   -3.86300970404832   -3.78672601242885
H          -9.42644105224857   -6.36608839074426   -4.77239688816425
H          -9.49991139875916   -6.69576830954474   -2.13953548626864
H          -6.68373133917976   -3.33514664972254   -0.85956652272936
H          -6.02867988788976   -3.61918723241587    1.70142922238555
H          -7.18597601680177   -8.32843421464296    1.22566222049674
H          -7.57965099289427   -8.06275730031710   -1.81375437550056
H          -6.59834080410000  -10.23263045502434    1.57696172431540
H          -7.10287310389275  -11.93220408760520    1.64055870101108
H          -9.08519857926529   -9.59701638526871    1.64062163357625
H          -8.52798264583961  -10.44223260112428    3.08528318116244
H          -9.45537182949446  -11.31042489839741    1.85650292498591
H          -7.71406041076463  -12.31671276408350   -6.16443647432055
H          -8.13581564094528  -10.58762887056441   -6.15365797039971
H         -10.11921752620287  -12.86805662075668   -5.63509878170652
H          -9.98320712834968  -11.93109493118009   -7.12706150777117
H         -10.49673954484421  -11.14112826379525   -5.63574963889546
H          -8.20778298847251  -14.12082321439360   -4.84257365037821
H          -7.93583027514476  -14.60146001873922   -1.82563266014865
H          -7.74943026026456  -18.90473078652692    0.90171841716618
H          -8.48076328310922  -16.52792219278683   -7.62959306371217
H          -8.45338422753996  -20.79838482541976   -4.87516724148625
H          -8.33945631408000  -21.26687087765180   -1.84617108638166
H          -9.19722041848427  -26.09759781757151   -2.75622394995426
H          -8.35103660615307  -25.61506481508254   -5.22195118104016
H          -6.01700773926717  -21.51344176928336   -4.43058035859162
H          -4.74213048058439  -21.23601474240617   -6.74276091770437
H          -7.85531936487335  -24.73606994373774   -8.48917844733654
H          -9.93532550770038  -23.80320976734286   -6.43638839990610
H         -10.17354709413037  -24.98867137083814   -7.81264932045630
