132
 SCF done       -253.227187365257          0.000910557378
C          -3.96207371858781    3.70366766521254    1.63094704076774
C          -2.78604382347546    4.22167681829820    2.09454790490796
F          -2.59667461556623    5.54760369885527    2.11912620247902
C          -1.75820362791214    3.37169864259885    2.55180244486373
F          -0.61518207732427    3.90828914927897    3.00025915098335
C          -1.92181851053805    2.01520669067343    2.53960974657661
C          -3.12319908145462    1.44981490440060    2.06885733346320
C          -4.16285102010188    2.30793107135191    1.60477452963468
C          -5.37513512728316    1.76382647228833    1.12636053283186
C          -5.54263675947903    0.40243109260195    1.10975252673837
C          -4.49830272077658   -0.44575149600854    1.57517657009412
C          -3.31953040234742    0.05158073940146    2.04887916923742
C          -4.93177992988237   -1.85159934392125    1.47341447824743
O          -4.46001296400276   -2.81206148693376    2.03482140470025
C          -6.22775087667502   -1.80324914263585    0.71688245147353
C          -6.66229160396636   -0.41801736889469    0.65954564236874
C          -7.88434885377021    0.03910732997945    0.24884421666026
C          -8.24724702746001    1.40242447746778    0.20533572082162
N          -8.60276179866545    2.49200718947028    0.15064963879777
C          -8.95352051989944   -0.79115383568798   -0.15079133540321
N          -9.85954994952576   -1.41456789740258   -0.47910127645987
C          -6.80131411051937   -2.89422665950572    0.16488744613892
C          -6.12471811657400   -4.15080144918038    0.04796206878302
S          -7.02982343082529   -5.61930554771757    0.23880285744921
C          -5.63101818337755   -6.59062770932829   -0.09420156729227
C          -4.53141590378022   -5.79865124877593   -0.36234396922876
C          -4.80562282493546   -4.41087822131065   -0.29884489731877
C          -3.81760857568260   -3.42166210186092   -0.75597533355006
O          -3.95802128711060   -2.21191703216266   -0.64563205377425
C          -2.63838841305491   -4.00038282188397   -1.42515673241834
C          -1.78983544335006   -3.15899119292899   -2.14194615468574
C          -0.66471750796114   -3.65901063123038   -2.76867060981800
C          -0.33348784034457   -5.00708178420581   -2.66971006703779
C           0.85064410817181   -5.57570283618537   -3.39048008948984
C           0.39739633936085   -6.21189343753801   -4.70735639592811
C          -1.15868386791022   -5.84020952908098   -1.92470116037384
C          -2.30959526471221   -5.35904897278648   -1.32006429986245
C          -3.15869374878670   -6.29991203881607   -0.56474689022717
O          -2.75444447507401   -7.34872376930480   -0.11084279214292
C          -5.66326998819804   -8.01282895294743   -0.24748160973049
N          -6.36193445979707   -8.90729754893538    0.51113299852012
C          -7.12019285396538   -8.61985600935159    1.70424671202779
C          -6.22029842382765   -8.17978157904021    2.85472025706035
C          -6.12282278802915  -10.24002564420402    0.08834748092249
O          -6.59423241568382  -11.20301154742814    0.64888620730891
C          -5.25743992422514  -10.09811231339513   -1.06251220061837
C          -4.99479358437077   -8.71532514961779   -1.23575487258209
C          -4.13062028080683   -8.55210552500618   -2.38180081052717
O          -3.67203013904595   -7.56498657498446   -2.92288140580130
N          -3.90239793012186   -9.86389371547750   -2.82209516600707
C          -3.00482614639566  -10.12920918369532   -3.92002796431543
C          -1.60408783301960  -10.48815270621559   -3.42975872182101
C          -4.55388432496039  -10.79597583165180   -2.04074250727192
C          -4.44178043723169  -12.19179156215145   -2.24019283649538
C          -5.14003146458670  -13.11600087008627   -1.52979584607893
C          -4.93137146199919  -14.50720376298995   -1.67930084660161
S          -3.59476755411004  -15.13878902683160   -2.59986373237077
C          -3.95505038578314  -16.77762435802817   -2.13907479859947
C          -5.09502442098506  -16.82218301177793   -1.34273905851817
C          -5.64058471811269  -15.54591944687255   -1.08369016371615
C          -6.83719374655471  -15.36183735722244   -0.24513138696000
O          -7.49835960763493  -14.34448279211475   -0.23037967527888
C          -7.15638247078590  -16.53677887210868    0.59385406557761
C          -7.99121881844877  -16.38066619326383    1.69493365303860
C          -8.28930659484999  -17.45833122323399    2.50815473399935
C          -7.79057849136002  -18.72698446665563    2.22587444874224
C          -8.05862674347571  -19.88661494941122    3.13558438830774
C          -6.91756776927697  -20.03120633965489    4.14669495007526
C          -6.98762358740043  -18.88962195615435    1.10483117562778
C          -6.65306175973461  -17.80956866787483    0.29642822014250
C          -5.75998130924352  -18.04004415288586   -0.85351160076340
O          -5.57010288442327  -19.14836358736246   -1.32269608672260
C          -3.07841060990764  -17.78380909840191   -2.62283143286200
C          -2.75125515370905  -19.00826624674932   -2.13594988277125
C          -2.08341050962582  -19.97195141467324   -3.06106874874218
O          -1.55057066020946  -19.70932854070295   -4.11264571596038
C          -2.26738769353043  -21.29504958332563   -2.43506486593468
C          -1.96251964976024  -22.52897594701655   -2.93295219870187
C          -2.26621216200179  -23.67387891865265   -2.16268957619189
C          -2.88800134864801  -23.51598442513871   -0.88964588037217
C          -3.19642329465652  -24.66334487658916   -0.13125203866930
C          -2.89896125172469  -25.90755906994133   -0.61176090146217
C          -2.28195163572053  -26.06227845782204   -1.86956686577357
C          -1.97165801541277  -24.96958378041402   -2.62973742990820
F          -2.00163827181200  -27.29401243785104   -2.31513316339922
F          -3.19173063141934  -26.99612263167303    0.11156131430783
C          -3.18480179531780  -22.22494316434044   -0.39702995548426
C          -2.87316005958257  -21.12918573466460   -1.15665261164468
C          -3.03574883125320  -19.70298690259816   -0.89806672199313
C          -3.22270387114544  -19.13852797315652    0.33530802881511
C          -3.14513773525351  -17.75319351362996    0.57421094453427
N          -3.05840382970071  -16.63407028418482    0.81462085976865
C          -3.51354228299606  -19.86735016286394    1.50479398956665
N          -3.79592560643517  -20.40499026187123    2.47908477071400
H          -4.73835268556014    4.36834465423523    1.28527358086197
H          -1.12638388418880    1.37823993067332    2.89353574390639
H          -6.14116674695420    2.43817086768079    0.77837885244705
H          -2.54423160430397   -0.61417661751813    2.39572537014807
H          -7.80423006670612   -2.85302301669126   -0.23973561587202
H          -2.03913435389126   -2.10983391877611   -2.20336679932172
H          -0.03066692344711   -2.99496033699187   -3.33825199701307
H           1.32757291165300   -6.33707298736894   -2.77039994176747
H           1.58015037648060   -4.79075739586066   -3.59649678970831
H          -0.34967692118484   -6.97867645349509   -4.51731373624623
H           1.24284318698076   -6.66359250204137   -5.22030751687984
H          -0.04400918997715   -5.46046103940584   -5.35782499504213
H          -0.92701136183462   -6.88871255458766   -1.81298441631481
H          -7.62962139223292   -9.55257103515523    1.96228971335783
H          -7.87069558299449   -7.85396531465311    1.48587318688228
H          -5.49294797391959   -8.95640385191600    3.07768056996183
H          -6.82087817284566   -7.99825983117603    3.74137160893014
H          -5.68415242966042   -7.26693938268399    2.60461357489401
H          -2.96247698120932   -9.20457977088816   -4.50318927005608
H          -3.41684937683401  -10.92271783349819   -4.54888949285096
H          -1.21608920534704   -9.68468522396092   -2.80879737830970
H          -0.93972234518304  -10.62823007568223   -4.27812036975723
H          -1.61702605334258  -11.40115138123408   -2.83929329206765
H          -3.74654777427156  -12.53478281947941   -2.99602640879919
H          -5.88497801981940  -12.81399181332636   -0.80331530211241
H          -8.38458585702501  -15.39696406264313    1.90342070276635
H          -8.92092209606708  -17.31692705381131    3.37312247670894
H          -8.13804182557804  -20.80448923521890    2.55046569411960
H          -8.99907959561515  -19.73346812903466    3.66800480393010
H          -5.97120737539588  -20.19333058631720    3.63560703518713
H          -7.10560446719365  -20.87430906875214    4.80644656502427
H          -6.83043045829659  -19.13050295318865    4.75005926245793
H          -6.59798309819478  -19.86463837836261    0.84856012730536
H          -2.59411906061127  -17.54409002333173   -3.56705347811055
H          -1.49876947946603  -22.63122681636122   -3.90224701188087
H          -3.66608690579567  -24.56310814583742    0.83476292640906
H          -1.50036952172243  -25.10488065873367   -3.59059951063853
H          -3.66353391344953  -22.13398526537259    0.56478815841165
