114
 SCF done       -242.827741539892          0.000718431624
C         -13.14744933066598   -3.56476046606833    3.73649682330398
C         -13.85714783096055   -4.19449074467452    4.72071027600959
F         -15.06953962195467   -3.74710090147258    5.06561700890960
C         -13.32336965045139   -5.31827482458484    5.38487813276841
F         -14.04144544783177   -5.91066002557498    6.34522795825020
C         -12.08725961507782   -5.79910442155641    5.05325416758174
C         -11.33384620945054   -5.17392766443412    4.04084523882791
C         -11.87047697130477   -4.03522181678696    3.37101839903260
C         -11.12700417260287   -3.38351514164642    2.36000040734443
C          -9.88667340107310   -3.85924349611175    2.02546388797251
C          -9.36593829030713   -5.00558198360080    2.69156952222344
C         -10.05615202864924   -5.65303961127544    3.67651262904089
C          -8.03933831874609   -5.31770759906064    2.14463149535232
O          -7.35164588158507   -6.28577552761891    2.42237602699849
C          -7.71336558390906   -4.22730646324572    1.21457550894332
C          -8.89146262125640   -3.38636570563666    1.06811338800770
C          -9.06250338101403   -2.36287739228336    0.17561614546943
C         -10.25185893798538   -1.61085163501130    0.05916490628894
N         -11.19097137500517   -0.96626049844124   -0.07671754072251
C          -8.09199820884362   -1.93120522554149   -0.75407417397040
N          -7.34024069219154   -1.53500857867516   -1.52589451526032
C          -6.46537157848065   -3.94798836788204    0.72649649924719
C          -5.26648865429501   -4.66587466999521    0.89231367318539
S          -5.14909790994238   -6.29259645055208    1.49430698323599
C          -3.41428722397969   -6.23452607966947    1.38453288700353
C          -2.95107846049657   -5.00883713791128    0.92379206890014
C          -3.99542451580616   -4.13648297638802    0.61015451907755
C          -3.76814693426710   -2.75442391562528    0.08112315680595
C          -2.28640190032338   -2.42703136606783   -0.16650682333847
C          -1.80825739730047   -2.76873148007001   -1.58143834475265
O          -1.08986717904449   -2.02780364541847   -2.18811559185691
O          -2.23143863170920   -3.91012433443992   -2.12410824765104
C          -1.36651162424948   -3.08440468040699    0.88671146672978
O          -1.60844910986200   -2.56739824085581    2.17167247177874
C          -1.51176323773825   -4.61101567700794    0.85802299370541
C          -2.69853735202040   -7.42362321278558    1.71952282816022
C          -1.85638417182769   -8.15054712841047    0.90710272929445
N          -1.49319526527054   -7.86276992967818   -0.42219702520394
O          -0.80814093924692   -8.67729644428053   -1.00655319637140
O          -1.90910680621270   -6.82589144412301   -0.92046030322171
C          -1.58040373127258   -9.43058764949979    1.52259692418284
C          -2.25344492620060   -9.50343228290437    2.68998637148915
C          -2.92807173813925   -8.24744301076678    2.92880019871419
C          -3.61018697508280   -7.82753401105575    4.04260714336720
C          -4.21685280634970   -6.52495294250388    4.22869336021898
C          -5.25906615039441   -6.64993028573140    5.07840402658379
C          -5.30453867551741   -8.01262729662371    5.55047122315934
N          -6.29579857731454   -8.46403584649913    6.44175550671214
O          -6.20242380782155   -9.58815845175697    6.90648016139665
O          -7.21322882901549   -7.69867086114154    6.68181633108154
C          -4.20793150647387   -8.71224946834152    5.06947005789627
C          -3.74763231321044   -9.96761517816575    5.54124532936499
C          -2.42795183818975  -10.26851918879887    5.65894705511863
C          -1.92139289592482  -11.46029602126758    6.22945617278954
C          -0.56782702247196  -11.75047375445024    6.40576096580484
C           0.42454575537480  -10.84610018645090    5.99374671094222
N           1.18707811808974  -10.07050989830190    5.63125607279360
C          -0.35895039268066  -13.00845224879529    7.01593221252885
C          -1.57192801168851  -13.64471377140917    7.28742797341540
S          -2.95611712447421  -12.74551124269708    6.81207770931109
S          -1.43112008516848  -15.18834169585346    8.06027018454362
C           0.29152157358621  -14.98902924246596    8.03442675047029
C           0.73794195141262  -13.80265139053419    7.45762863304685
C           2.15057485566180  -13.70250961001122    7.51300499464630
C           2.91427789386037  -12.67595353722706    6.93679217200501
N           3.57376807129414  -11.86372279924173    6.46716909481956
C           2.73611080193537  -14.79612250683186    8.14139708934423
S           1.55472091153534  -15.99158370427624    8.61828162023274
C           4.11445353161132  -15.05300472049359    8.38578949009860
C           5.12666760618483  -14.17735898150685    8.59497180175879
C           6.53606871502692  -14.66843918275199    8.44499662579792
O           6.88531328317673  -15.82177430576445    8.38848874941613
C           7.35486498499250  -13.45026206113977    8.32772163481679
C           8.68459209498219  -13.33414729940423    8.03671405314882
C           9.25441003187679  -12.04556463643850    7.93691990747928
C           8.42971850995188  -10.89736282679964    8.12625800370135
C           9.00315987350698   -9.61490398750703    8.01078465619199
C          10.33336622932300   -9.47817792792454    7.72832933680013
C          11.14890760984863  -10.61431229786245    7.54563763542424
C          10.62183657618046  -11.87138506596960    7.64633892355278
F          12.44831569469334  -10.45010741261759    7.27122160223123
F          10.87803328112683   -8.26106617452349    7.62346514307333
C           7.05848656228497  -11.04779956913213    8.43243609706319
C           6.53265071399705  -12.30719423721061    8.54506701324825
C           5.18373656299410  -12.75375259211096    8.87230058479293
C           4.25027905163279  -12.00812570969175    9.53797973237758
C           3.01844632678042  -12.51292029577286    9.99708406936445
N           2.01078551661536  -12.89060537076656   10.39725506818248
C           4.44211606635638  -10.65846245799497    9.90697836084309
N           4.54640482002526   -9.56730313114628   10.24345629146362
H         -13.57086718457691   -2.70562117105822    3.24000735365761
H         -11.68961400197049   -6.65722940756909    5.57207205975053
H         -11.55583408828480   -2.51749782485909    1.88236673656046
H          -9.63169255725014   -6.51084225163913    4.17572368303965
H          -6.34916159622901   -3.01443479649786    0.19136397901864
H          -4.17319724623128   -2.02650954123928    0.79211989891746
H          -4.32647494233961   -2.61604189919344   -0.85052333032113
H          -2.14826241393611   -1.34510616060987   -0.07457123414279
H          -2.68409299450738   -4.51958786172544   -1.52401929765859
H          -0.32916368665517   -2.81230416357847    0.66876665489271
H          -2.51302260475328   -2.77815980954131    2.42989530430301
H          -0.96770124472274   -5.03887946036595    1.70373712183735
H          -1.05604630510298   -5.00684086041731   -0.05377509624225
H          -0.96288557148929  -10.17987965494116    1.06589067949844
H          -2.27052071818321  -10.34684656931732    3.34821750219404
H          -3.86738088263700   -5.61967089911299    3.77580761764765
H          -5.94653771728617   -5.89248772143991    5.40185894889462
H          -4.48781738060014  -10.63745019345905    5.96113872734381
H          -1.67805857155151   -9.54563168453221    5.36023385736364
H           4.40941132175606  -16.09867748687558    8.36540119908965
H           9.29224301267339  -14.21272408140555    7.88223657083158
H           8.39356773728506   -8.73586319050576    8.14983162253446
H          11.25907992118635  -12.72975183749375    7.50201980573824
H           6.45098000966701  -10.16552623930884    8.55377437057599
