112
 SCF done       -219.224736805859          0.000446084059
C          -2.73668693216386    1.57580360578648    9.01670573864499
C          -2.13504430691243    1.78826937483861   10.22512856017453
F          -2.09398332306090    3.01973193160362   10.74962290093176
C          -1.55181718001194    0.71873044579845   10.93463366325914
F          -0.96933466731320    0.95722694703713   12.11702424675799
C          -1.57833485942670   -0.54918267600763   10.42527166344742
C          -2.19175138010304   -0.80047363422016    9.18252839994941
C          -2.78293343320847    0.27959937502054    8.46459120250492
C          -3.40982798530708    0.05072360414507    7.21866637230175
C          -3.44974718167513   -1.22077448912948    6.70840582218630
C          -2.85132095105945   -2.29029948256284    7.42913309562891
C          -2.23392865115897   -2.10020210747266    8.63182528370344
C          -3.00741950164645   -3.54731184300023    6.67174712128888
O          -2.54498523039879   -4.62456906002387    6.97347397865698
C          -3.75934320182755   -3.18274724289825    5.44093927517384
C          -4.03660056965794   -1.75727370578810    5.48399961477968
C          -4.78648208331945   -1.04098405617618    4.58773275122631
C          -5.44814328508439   -1.56944261923819    3.45809316335149
N          -6.03879051655144   -1.91839433980854    2.53751317040938
C          -5.03142845231889    0.34492286446099    4.69467686809234
N          -5.26236418296528    1.46890066975552    4.72138097861396
C          -4.01983224206018   -4.00650926935078    4.38185909776220
C          -3.93972253959008   -5.41811920049058    4.30445332176344
C          -3.90469079761635   -6.11238931617281    3.10861376332447
C          -3.84748820504061   -7.50999193868445    3.37829550276042
C          -3.91084787774248   -7.64382698342131    4.84170199042150
C          -3.97339497129241   -6.39906033052683    5.38317744061976
C          -4.01780644743772   -8.83612735545069    5.57091834799687
N          -4.15695517295221   -9.78822474699499    6.19735084698139
C          -3.77404942997374   -8.54106637498987    2.46616057455673
C          -3.62946784300675   -9.92434847874162    2.74409926705594
C          -3.70871990567043  -10.63965591313955    1.56217508675154
C          -3.88555640262756   -9.68255825622657    0.47737229858160
C          -3.89255818605122   -8.42903742672378    1.00031783889572
C          -4.00594165198315   -7.25292616310822    0.24977957990633
N          -4.09025623375656   -6.31007801695873   -0.40046999552040
C          -3.60033297654456  -12.05133982226080    1.49987672457116
N          -4.03680914507495  -12.88939471117891    0.50352773898692
C          -4.81399472820266  -12.55793456940960   -0.66895907044787
C          -6.18865086192716  -12.00180804914613   -0.31368171002348
C          -3.78121335512964  -14.24118365960508    0.81012258562439
O          -4.10430522185154  -15.16416247743035    0.09154063683415
C          -3.09514349391342  -14.20055849811953    2.08242503136842
C          -3.01082268995731  -12.85447418980625    2.48535298805985
C          -2.24964285889947  -12.80399145128445    3.72253701631768
O          -1.88315898392772  -11.88529634347529    4.41708964048622
N          -1.94534469955965  -14.15589712832251    3.99280419594170
C          -1.22844484314024  -14.52779057760393    5.19044706284727
C          -2.17601465739418  -14.97827517028791    6.29871773343856
C          -2.44305047624809  -14.99698736912053    3.03519389808376
C          -2.28004879301944  -16.39997062973827    3.05093963710543
C          -2.77211402243393  -17.21542896169034    2.07553104860892
C          -2.57334870135784  -18.61473721941395    2.11492507929124
O          -1.99150015802832  -19.19237125746789    3.17995741620157
C          -1.85625812145091  -20.51704928546489    2.93418654666808
C          -2.37661782381664  -20.81383736260689    1.68248251163848
C          -2.85044088722824  -19.60175845934927    1.15410578675374
C          -3.46409417194491  -19.41441519107825   -0.09443365650334
N          -3.96535002601281  -19.29756783768874   -1.11814856863787
C          -1.21283144798246  -21.33121727652871    3.89892336534961
C          -0.85706334634329  -20.84031912210283    5.11782756419419
C          -0.10699714610309  -21.56868887308421    6.05917464175488
C           0.34861696651470  -21.16322233020896    7.28179591734630
C           0.91529114313456  -22.20492577240585    8.18503231537201
O           1.20769162240825  -23.33725483660369    7.87667762084326
C           0.99350238657405  -21.57748319357632    9.51564582233406
C           1.36217715211572  -22.13664122294404   10.70494763957914
C           1.32691822332143  -21.34647537627196   11.87520727124426
C           0.89735773862159  -19.99067663688746   11.78632599232013
C           0.85437225252442  -19.20705937579028   12.95712744399797
C           1.22412288240008  -19.74381897122365   14.15838183937021
C           1.65067311423915  -21.08487983366169   14.24454648032868
C           1.70129887517915  -21.87093958534722   13.12742401444696
F           2.00612798956415  -21.58385607535050   15.43487999513950
F           1.18448865467045  -18.99833610940337   15.26921654110367
C           0.52513305278479  -19.43992560466416   10.53876212325391
C           0.58198653568819  -20.21867306789197    9.41280368474140
C           0.29861674505443  -19.91218532748479    8.00783516409690
C           0.16919814011574  -18.63369128644299    7.52702452892843
C           0.10766860387082  -18.19886914189285    6.18887383178216
N           0.07877555146898  -17.69456508639743    5.15586722423169
C           0.14064288080410  -17.47920650331979    8.34181216752969
N           0.07468611140549  -16.48414335388264    8.91074351595124
H          -3.17926265570787    2.40527690836508    8.48754755803864
H          -1.12746007523072   -1.35708054025054   10.97999303565318
H          -3.84188500895003    0.89050214340928    6.69933022743878
H          -1.78808707681382   -2.93170098296067    9.15625375037570
H          -4.32499286627909   -3.53883686765864    3.45260623680640
H          -3.87515596497483   -5.67260667663483    2.13007480674998
H          -4.06334532485219   -6.17180825313677    6.42663571537577
H          -3.48291250807671  -10.34070990065266    3.72045410405780
H          -3.94684565131928   -9.91476833684678   -0.56825920419521
H          -4.92660268635855  -13.49952206816595   -1.21517819970891
H          -4.25747647244846  -11.86253061456964   -1.30227722198304
H          -6.73736888133232  -12.72060849151896    0.29021316943189
H          -6.75099522876901  -11.81292878461737   -1.22373605383647
H          -6.10786742005771  -11.07099174364272    0.24366368976349
H          -0.69276774904321  -13.63166205707923    5.51426041386808
H          -0.50480827462721  -15.31230117883347    4.95693414065030
H          -2.87402905683210  -14.18027109349850    6.53929092134535
H          -1.60338746921012  -15.21843957758568    7.19038769654748
H          -2.74022644459446  -15.85793237589961    5.99481370683202
H          -1.71765514006275  -16.83813779543539    3.86419887900102
H          -3.30968239376977  -16.81924705912137    1.22430838396030
H          -2.41396313901861  -21.77664982573011    1.21460225117755
H          -0.98199742341461  -22.34669005280054    3.61244178697126
H          -1.16541548134049  -19.83640078601236    5.36070517801353
H           0.12143180340836  -22.60203611164713    5.81597945510384
H           1.67574473614689  -23.16834842389223   10.75124696277027
H           0.53351109748222  -18.17815773143232   12.90874273727406
H           2.02955782752716  -22.89519530372496   13.20984807532436
H           0.19587772471878  -18.41403602478216   10.51217198539794
