107
 SCF done       -217.923898072766          0.000709043767
C          -5.88324295128129   -1.26899335615303    8.61373149257088
C          -7.00800638888616   -0.56012113445796    8.93083787588591
F          -7.01184487905615    0.25743150836085    9.99070498826209
C          -8.17561961982126   -0.67952007677598    8.14985454126928
F          -9.26303062393946    0.02641720973544    8.48486376202636
C          -8.20184394064630   -1.50652314246378    7.06199373191003
C          -7.05877492167557   -2.25034193121799    6.70958242856249
C          -5.87723787101694   -2.13011420025944    7.49802013327662
C          -4.71659087213499   -2.86417844152157    7.16178415806571
C          -4.73855453736526   -3.69475913707989    6.07273001804939
C          -5.92641170554995   -3.81581378508295    5.29665123420192
C          -7.06046722048533   -3.11533471125296    5.59311402665664
C          -5.69759129254972   -4.77856140575546    4.20590690254567
O          -6.48327012021606   -5.08287316671578    3.32843583914361
C          -4.33736470863446   -5.30497172976962    4.41143042458620
C          -3.71108689635131   -4.54756730188761    5.48199709031732
C          -2.38420872872920   -4.55217781336109    5.81269905746995
C          -1.37735418222113   -5.24562351216110    5.10321184915815
N          -0.49738006970478   -5.72967070623956    4.54898044907567
C          -1.83746644870950   -3.78848968884220    6.86628165660946
N          -1.34667459370355   -3.19621234869955    7.71777766920486
C          -3.82279811759712   -6.41635123693314    3.80803541990187
C          -4.38250651243953   -7.20886809310231    2.78610952359872
C          -3.80202417584684   -8.38704322183981    2.34514502776870
C          -2.61467476392389   -9.17859230152035    2.71411936605345
O          -1.81837203865158   -9.01778280402762    3.60409625191591
N          -2.59252420693530  -10.21458876966448    1.79227525787874
C          -1.55213610865441  -11.21216384476400    1.75467498226353
C          -3.63402679954724  -10.17027597855874    0.86334080492217
O          -3.72841372626151  -10.92680555906075   -0.07015254157013
C          -4.45376485460793   -9.01883462714097    1.27641170656792
C          -5.58793253343516   -8.33894692851564    0.86317730911889
S          -5.82191740887796   -6.89640348427776    1.82953698032815
C          -6.52975440494810   -8.69005545887325   -0.12975527398057
S          -7.46293812863884   -7.47695180027875   -0.94436849774223
C          -8.32488866363888   -8.63036470677597   -1.90185741444807
C          -7.91317606025250   -9.92376605855437   -1.57797365674197
C          -6.90254086885105   -9.96107690787475   -0.56890026857787
N          -6.45211000523664  -11.12916438313008   -0.06854792659748
C          -6.92033746873557  -12.21674249090272   -0.62093774884889
O          -6.53172850582520  -13.40792103328704   -0.19498361426101
C          -5.52995896120574  -13.42798270558338    0.82291534532426
C          -5.16002065459166  -14.87433381087664    1.09273409269126
C          -7.88738561765755  -12.19052764077214   -1.70144053518966
C          -8.36020901288765  -13.47861530596431   -2.29474819177056
N          -9.03665661296782  -13.28614736526015   -3.55566751909401
N          -8.37750408521790  -11.06874505661028   -2.13199530254802
C          -9.31102481501519   -8.22679447102345   -2.86405384950499
C         -10.05205325971634   -9.18873099386894   -3.55226407285769
C         -11.02651939765799   -8.81482058432418   -4.45946065785134
N         -11.72893426866251   -9.87910532103872   -5.12657390737951
O         -11.69014016078950  -10.97867888437783   -4.61485671724691
O         -12.32410825417513   -9.62505060658230   -6.15451465604031
C         -11.29535926502547   -7.46175953034336   -4.73962945552510
C         -10.52672152410930   -6.51008633045485   -4.05472261777646
C          -9.56938030274691   -6.87489645269208   -3.13843889938373
C         -12.35040536102460   -7.02519915176383   -5.62656589920275
C         -12.24285862858405   -5.95771909454769   -6.44218255533747
C         -13.26182258388418   -5.52015492158434   -7.34142848760258
C         -14.61098136194989   -5.62029866745727   -7.23806067604510
C         -15.44346172222468   -5.43862260914512   -8.46467063022180
O         -15.08010454547817   -4.97601429612802   -9.51922328470570
C         -16.77024137211583   -5.98434107437588   -8.11772941818995
C         -17.85898915244247   -6.16886725802489   -8.92061559813558
C         -19.03118959358050   -6.73227971903249   -8.36904165034543
C         -19.04762815909679   -7.10530150198730   -6.99327295407833
C         -20.21865543196292   -7.67176207497306   -6.45030590033914
C         -21.32257420062692   -7.85459764057175   -7.23455588350216
C         -21.30589077147863   -7.48381363195453   -8.59468861846010
C         -20.18491146687804   -6.93494393362898   -9.15142779993789
F         -22.40258705434971   -7.67513168169443   -9.33906911093649
F         -22.43544567819235   -8.38916354071828   -6.71650536869926
C         -17.90603871636998   -6.90023749847085   -6.18606125693094
C         -16.78596887455917   -6.33727795598071   -6.73813564450290
C         -15.50064253626584   -5.97319632536396   -6.14779664037802
C         -15.28365707734362   -5.77182788599064   -4.81110924317441
C         -14.11312335309325   -5.19928490459215   -4.27523986823936
N         -13.20201531739024   -4.70968550244005   -3.77780262036593
C         -16.24073143767882   -6.04204855156288   -3.81021860933935
N         -16.97648801024154   -6.25347529746832   -2.95528797213921
H          -4.99786857699242   -1.16452192988908    9.22121424434877
H          -9.10302847131130   -1.58704592269567    6.47456781141795
H          -3.83991386297414   -2.75522254277310    7.77958346232807
H          -7.94618470495664   -3.22188885577387    4.98551688956625
H          -2.86959164684820   -6.79846520387738    4.15938428045190
H          -0.66285398805435  -10.79863421830676    2.22739495333688
H          -1.34830983143068  -11.46959743327339    0.71608974067286
H          -1.86162246989079  -12.11067631506723    2.29278480490546
H          -5.92845514036307  -12.94083922981644    1.72045870882269
H          -4.67109964996162  -12.84644089539893    0.47139776134141
H          -6.03608673452215  -15.43515453258097    1.40812962713399
H          -4.40984072313859  -14.91920755406759    1.87677644651589
H          -4.75945277493174  -15.33236806190793    0.19266194197829
H          -8.97500243653995  -13.97520160155752   -1.51761991159379
H          -7.48748025381411  -14.12100770153034   -2.45745153973757
H          -9.78020603778879  -12.60193426513777   -3.47541886922564
H          -9.43824104517242  -14.15609293867738   -3.88330240831115
H          -9.84912849545699  -10.23497202978439   -3.38236529213816
H         -10.74092919090291   -5.46597032828097   -4.21840960269161
H          -9.00993048952338   -6.11372884574959   -2.61505897777949
H         -13.24997464335772   -7.62535035406799   -5.66075569744995
H         -11.29205231722339   -5.44815170266116   -6.52583923341045
H         -12.91451375469831   -5.09103374778798   -8.27706741722374
H         -17.82679154714494   -5.88753760538344   -9.96213180465799
H         -20.24931718015991   -7.95755880379868   -5.41050725671905
H         -20.18824615334379   -6.65698787699792  -10.19372197535132
H         -17.94262135485243   -7.20185116364421   -5.15138306718732
