127
 SCF done       -262.600732858891          0.000995664414
C          -1.72212143775531   -2.57086283321548    4.10840124435590
C          -0.49831580960506   -3.17824203872462    4.14433470373315
F           0.57992715105775   -2.49653045985738    4.54549612997682
C          -0.35545447434868   -4.52798907002970    3.76061367362767
F           0.85464229709341   -5.09693454245920    3.80608487848568
C          -1.43890922754083   -5.25115442659448    3.34686687203904
C          -2.71401005959883   -4.65416698338153    3.30063846461685
C          -2.85926305597074   -3.28916411232881    3.68671572747967
C          -4.12852662506786   -2.66994771993625    3.64848011591649
C          -5.21871209403923   -3.39376296781730    3.24101655671521
C          -5.06795500348587   -4.76077708013718    2.86562970801056
C          -3.85124709094422   -5.38239127545198    2.88786979730536
C          -6.38291903653050   -5.32397775298293    2.51673680793035
O          -6.63961673720156   -6.45371596359544    2.16062022392800
C          -7.35587016979094   -4.22479816704710    2.75839042753329
C          -6.62012121862141   -3.01951911755669    3.10568023451186
C          -7.14453090080907   -1.76264350859420    3.20506493410716
C          -6.39304017110546   -0.61526372926420    3.53941935704084
N          -5.82376919346166    0.34277290967207    3.81035512845999
C          -8.49558669093393   -1.46151494782362    2.92349254218220
N          -9.57294346874316   -1.16996873148114    2.65855193650251
C          -8.68719506795673   -4.44437408344218    2.82532465239626
C          -9.28901567734584   -5.70539278397719    2.48513711473546
C          -9.91163964147158   -6.54601014018074    3.37767457976360
N         -10.04056973082714   -6.27468018218157    4.75063890305523
O         -10.66164091183483   -7.06188771815763    5.43565977285589
O          -9.51204600242465   -5.25225311412889    5.16546937276108
C         -10.31348462709132   -7.76028716624196    2.70924402069410
C          -9.89879624806189   -7.68388780111619    1.42243709940750
C          -9.25530812128992   -6.41000092915455    1.20379401415169
C          -8.79523968152349   -5.88160688736123    0.02079321286211
C          -8.65301698800051   -4.49222599424525   -0.29691982652266
C          -8.36687760425705   -4.37937144905857   -1.61902290367373
C          -8.26557460867486   -5.69665971832511   -2.19589178086246
N          -7.79039041893519   -5.87615744050710   -3.51061546258316
O          -7.48976769308290   -4.87002432808359   -4.12809555863029
O          -7.67713840489340   -7.00749126527649   -3.95118634136047
C          -8.50783060394432   -6.64607183724052   -1.21053543506946
C          -8.35856725897205   -8.05471214872873   -1.19742658141873
C          -8.65470289998497   -8.90597368014830   -2.21934897181744
C          -8.48286243744068  -10.30801479159669   -2.25108406063091
N          -7.64939022519790  -11.10254329145491   -1.50506243304044
C          -6.67954522768898  -10.70077100261520   -0.51258237728773
C          -7.24153406649716  -10.79264697149169    0.90474464779366
C          -7.74853828598832  -12.46469646972699   -1.87405042321459
O          -7.10369774695913  -13.34765689157603   -1.35722676364809
C          -8.74545924685296  -12.47477918777697   -2.92757434312263
C          -9.16640887850179  -11.15338334676459   -3.13778089574575
C         -10.19407143461842  -11.17388021439371   -4.15933500783447
O         -10.87798991601141  -10.30398222634813   -4.64203061488137
N         -10.30525707199277  -12.54700095929984   -4.51720508926112
C         -11.21920108982798  -12.92691965754893   -5.56984949856897
C         -10.49313467092316  -13.20021853795984   -6.88402416816515
C          -9.44305189061501  -13.32293732032993   -3.79738642766803
C          -9.21360202823151  -14.72764077762901   -3.82162271055865
C          -9.84808000183007  -15.67896297796551   -4.53818141634450
C          -9.52694107624414  -17.08033397394291   -4.43654280405702
C          -8.21802976505540  -17.58023885897817   -4.34349812156291
C          -6.91308905302522  -16.88251750465928   -4.51582930929482
O          -6.66609332167059  -15.71918879681556   -4.66737225105097
N          -5.94762363186476  -17.90135196910733   -4.55091366117645
C          -6.48975568411475  -19.16287705934595   -4.31907950432539
O          -5.87808609734421  -20.19108031750469   -4.22461857719238
C          -7.95707546448774  -18.94714632036033   -4.25388025856066
C          -8.95234089127906  -19.90699116384090   -4.24463870948307
C         -10.24832345555447  -19.43078294764221   -4.38406647727978
C         -10.53448315517592  -18.07049938022745   -4.47931607061641
C         -11.97318010274949  -17.77476990036524   -4.60651309916182
O         -12.50725946557704  -16.70874251923408   -4.68548608717170
S         -12.89560682122979  -19.32342635927269   -4.63507242105399
C         -11.42171424058169  -20.32422763566165   -4.49349421602902
O         -11.41766328461188  -21.51861450510326   -4.51806964342156
C          -4.60073478544555  -17.64160059310103   -4.84447148873008
C          -3.86736153186026  -18.37351716149606   -5.69106819560359
C          -4.30135153971823  -19.51788686771772   -6.45005013093637
C          -5.48751379539907  -19.74757229227017   -7.05990273026451
C          -5.88233533849610  -21.15877350404820   -7.36271635763853
O          -5.15137217682457  -22.10583827265697   -7.49288293024876
C          -7.36081954973309  -21.12980599638214   -7.40476121561301
C          -8.23806432126331  -22.17495427232326   -7.45007689095581
C          -9.62579048815868  -21.90938618325417   -7.49283599981537
C         -10.07711939968303  -20.55757976701869   -7.52952629995264
C         -11.45981514064190  -20.29790141973821   -7.62189103756812
C         -12.35467819239349  -21.33084086600446   -7.65329987019213
C         -11.90865277683070  -22.66687277480516   -7.58573586351165
C         -10.57279898922686  -22.95053472853522   -7.51448678008413
F         -12.80557895104405  -23.65478850809586   -7.60933254731772
F         -13.66324972791407  -21.07969820598638   -7.74376575486477
C          -9.14778232762594  -19.49687866612470   -7.46223151784211
C          -7.80855529153909  -19.77794314258872   -7.37635157256002
C          -6.64878195961967  -18.90160542968320   -7.26708698200326
C          -6.64627670757476  -17.54215329831207   -7.43499877269485
C          -5.46375511380871  -16.77986353407762   -7.55203441363855
N          -4.52632566656493  -16.13878910898724   -7.70769200156691
C          -7.81793156999932  -16.76435039493937   -7.49567889376584
N          -8.75354289692788  -16.09950497295562   -7.45840736103076
H          -1.81385246858282   -1.53750890849077    4.40450848032386
H          -1.31225338622823   -6.28273709934587    3.05787490417203
H          -4.21129434597760   -1.63882360392087    3.95244324992640
H          -3.75853552325772   -6.41826818479156    2.59915094357160
H          -9.35023611918962   -3.68742224323245    3.22819226142525
H         -10.84337648366519   -8.55818736666059    3.19300922825701
H         -10.11135525756942   -8.39206207635557    0.64507730618737
H          -8.84262066147620   -3.68669502798428    0.38602172512477
H          -8.22584756389456   -3.47889262062757   -2.18663864145605
H          -8.03579998034677   -8.44703967640222   -0.24378206390855
H          -9.14389842111262   -8.52038701836331   -3.10331552447178
H          -6.33089570010868   -9.69239144971043   -0.74381945129011
H          -5.83868565676537  -11.39556883068233   -0.60212755862270
H          -6.50557953610095  -10.42685733196001    1.61512372932268
H          -7.47066878228526  -11.82889068864922    1.14113853354332
H          -8.15109404899022  -10.20600547539146    1.01679859115958
H         -11.88830789979726  -12.07030579990848   -5.69799786292457
H         -11.81670889960449  -13.78352368405643   -5.24933962723812
H          -9.98166406255712  -12.30025454527447   -7.21624697809930
H         -11.21509035785519  -13.48649926682424   -7.64337259585390
H          -9.76013834295071  -13.99578044834527   -6.78285952611534
H          -8.43880746666568  -15.02095196941476   -3.12514802072771
H         -10.68039014027118  -15.44486796968683   -5.18074378437425
H          -8.73796592040235  -20.96100026285972   -4.17447657213322
H          -4.19722851108236  -16.77858446969108   -4.33468502203241
H          -2.81481952165901  -18.13804751508392   -5.76591910431546
H          -3.59477448478150  -20.34100738943908   -6.49730318603868
H          -7.87835781642536  -23.19239752164350   -7.45683490803675
H         -11.81813525011944  -19.28118367322508   -7.67822568731805
H         -10.24894994839165  -23.97843771780173   -7.47183564623383
H          -9.51806426610120  -18.48394518173120   -7.47036813510803
