111
 SCF done       -212.734559091350          0.000495299688
C           0.74717405411098    1.49331427690471    5.25757149926796
C           2.09807747599391    1.61790394737573    5.42189355728309
F           2.63368642365904    2.81007105771545    5.71545613728322
C           2.94401245182286    0.49865799617436    5.28575848466366
F           4.26472878600488    0.65084368639794    5.45308252308226
C           2.42664743283241   -0.73057314081925    4.98761674870989
C           1.03831947451878   -0.89160639533500    4.81335738125732
C           0.18178347703608    0.23958118639667    4.94848109479338
C          -1.21423962260486    0.10305332230581    4.77321958848934
C          -1.73686576727780   -1.12724173500861    4.47076402104608
C          -0.87526930858751   -2.25118987407627    4.34701210428198
C           0.47616068387331   -2.15134139724364    4.51084758930681
C          -1.66837500357085   -3.45689017742169    4.03405325592296
O          -1.23274299874109   -4.57758893690640    3.89898913487586
C          -3.08634053692079   -3.00361824406451    4.01556348520067
C          -3.10711664313488   -1.56795706356778    4.23037635114976
C          -4.20170882169520   -0.74735160949224    4.14424260422532
C          -5.51163247699718   -1.16618083853775    3.82721375688722
N          -6.59829753920059   -1.42393080245743    3.56040059172940
C          -4.15619119639145    0.64988038027238    4.33508536177946
N          -4.18422666578250    1.78700116911062    4.48892609716726
C          -4.18617794228930   -3.81481025073815    4.01610260623907
C          -4.25428823241967   -5.19766833108512    3.71927738883762
C          -3.42264661089369   -5.98287042947588    2.94708436622232
C          -3.89733715185129   -7.32605133792021    2.97692756988686
C          -5.12729704202436   -7.31794743720085    3.78354749621292
C          -5.34628708957565   -6.04188786231231    4.19407188637623
C          -5.98670457191890   -8.40285309222086    4.00293776481992
N          -6.73406977924664   -9.25958711915306    4.16216738835548
C          -3.28452631313996   -8.42893320014174    2.42298442604815
C          -3.56771437779794   -9.79225531387941    2.68561336304261
C          -2.69202851164962  -10.58879545699987    1.96711602957833
C          -1.83387361311779   -9.70490472091340    1.18536495271827
C          -2.15775433088186   -8.41792027906394    1.47161593541010
C          -1.55497974238948   -7.29560140215235    0.89006904408747
N          -1.04668928267207   -6.40711799406595    0.36939835953679
C          -2.64558518851480  -11.99968581058049    2.08357046673448
N          -2.03666922822322  -12.90082279865923    1.24091241524182
C          -1.44868643760652  -12.65721106422250   -0.05618932133688
C          -2.46873892343440  -12.13940397002994   -1.06452379433704
C          -2.16813509148636  -14.22166084136805    1.70617619411209
O          -1.72309122800278  -15.18794416660371    1.11657115959175
C          -2.89498536377585  -14.09986728869058    2.94804623513390
C          -3.19037866014842  -12.73579550305508    3.14395239030446
C          -3.85461453869966  -12.60284012347485    4.42900440080227
O          -4.26100860488219  -11.64422913781874    5.04452417426897
N          -3.93098755974671  -13.92491368788383    4.91520084881240
C          -4.59900390271650  -14.22072680838210    6.16111039121809
C          -6.00620800302065  -14.76477638479190    5.93242720028665
C          -3.36374418491050  -14.82451637978519    4.05341203161212
C          -3.26212374700843  -16.20738976310654    4.32273746401286
C          -2.67763094267684  -17.07891248753286    3.45484154280637
C          -2.49638055144431  -18.46172649478596    3.68605438320498
S          -1.71073183072780  -19.42279952866153    2.46603022787090
C          -1.80646677787839  -20.86987271792838    3.42054713617938
C          -2.43627193689277  -20.61126266910354    4.63717937630552
C          -2.82573943730526  -19.25548360943093    4.78527569157749
C          -3.47328662107263  -18.80504326568587    5.94805570303899
N          -4.00146561192756  -18.46178894047591    6.90725090630471
C          -2.69059480086717  -21.54624681277399    5.65565679637223
N          -2.91819752375110  -22.26494820929156    6.52043810311308
C          -1.26919191873762  -22.07240934198856    2.88689416856426
C          -1.21561869788069  -23.25229783949515    3.54704468668746
C          -0.67776035524326  -24.49739154448415    3.10831243503197
S          -0.40335175727010  -25.66663705025964    4.37747397125222
C           0.28203125215932  -26.77723370584017    3.28401125760566
C           0.28546144734246  -26.30601030175534    2.00356134983851
C          -0.26981345651777  -25.01140518012540    1.88529247324792
C          -0.44755994035560  -24.36235297634856    0.53869180891549
C          -1.93228293494768  -24.37690819560993    0.16857658733868
F          -2.42104293932573  -25.62321602376641    0.10184380619813
F          -2.71640772307477  -23.71161067794690    1.02659517725238
F          -2.14430451326488  -23.81777629487791   -1.03502024459374
C           0.31470020694014  -25.07463282321923   -0.60151823627728
C           1.46143572510051  -25.94188167060756   -0.10275375468719
C           0.90346581603728  -27.02065771852436    0.83832521012462
O           1.88671096781924  -27.90118676514630    1.33650737954994
C           2.29569943176783  -28.89955122564976    0.43470762461885
H           0.11449320978155    2.36070750306242    5.36356348847608
H           3.08671747517758   -1.57780179579584    4.88664249736412
H          -1.83520117807443    0.97660600521408    4.88835781710979
H           1.10560605912607   -3.02213800095970    4.40826757999217
H          -5.13132589497014   -3.37634502944476    4.31713577847546
H          -2.54774064982086   -5.66128625899757    2.42034115258949
H          -6.17229408012886   -5.69156027918675    4.78546916241928
H          -4.31636299406027  -10.13930658738471    3.36957400423121
H          -1.04590711588089  -10.00659099583406    0.52310661135356
H          -1.06471504099782  -13.62809948649041   -0.38445995316592
H          -0.60124010376725  -11.97324751599466    0.03812865373765
H          -3.28215213135669  -12.85305197646811   -1.17224964284684
H          -1.99158770470537  -12.00866286047049   -2.03182018084539
H          -2.88587577856752  -11.18493130687713   -0.75121936778389
H          -4.65538654113021  -13.27307298668443    6.70354094994509
H          -3.99998598477335  -14.92728067785380    6.74159949735632
H          -6.60380604097426  -14.03653553147151    5.38959254983715
H          -6.47987133896237  -14.96039193905385    6.88977964436861
H          -5.97939000133517  -15.69137772029670    5.36331670430603
H          -3.65329481047699  -16.56196009683176    5.26342469096837
H          -2.29972917362519  -16.70729518242094    2.51028522520812
H          -0.88060785784187  -21.97266737439039    1.88512911660318
H          -1.57935924054789  -23.27747096638132    4.56551523804650
H           0.66919133328391  -27.71648877910229    3.62216788650248
H          -0.14233537957699  -23.31376456327306    0.58431975569877
H           0.68953365360310  -24.32526055689928   -1.29933959144510
H          -0.37879949628603  -25.71549467310023   -1.15156585718034
H           2.19560844742065  -25.34680362232692    0.44316993941738
H           1.95758793570424  -26.40351474345835   -0.95646308799094
H           0.12846284497123  -27.59913075099121    0.30304488863398
H           2.95779527559726  -29.55723554899777    0.99415570679962
H           2.84190826251010  -28.48602208580495   -0.41986651824092
H           1.43815103971241  -29.47440839739134    0.06457789170696
