117
 SCF done       -238.409668136068          0.000884805399
C         -10.21007695642199   -0.22130570577425    1.47058187010333
C          -8.95496683215787   -0.28320453764922    2.00750663016112
F          -8.38942125894646    0.81378683141388    2.52744281308393
C          -8.24024659465055   -1.49794856210171    2.02133362419667
F          -7.01104476454609   -1.52980682824942    2.55425828737560
C          -8.79086335922739   -2.63418757900854    1.49856462975132
C         -10.08313584115681   -2.60351051404733    0.93896619443489
C         -10.80587680006995   -1.37513238385857    0.92254858050108
C         -12.10219361254243   -1.31957441304210    0.36255989925028
C         -12.65626406330379   -2.45730096390765   -0.16186174310647
C         -11.93360267513824   -3.68346906423244   -0.13213997321074
C         -10.67863013395815   -3.76546403671851    0.39962074401899
C         -12.75572189441581   -4.76090746099323   -0.72015230368092
O         -12.45241866987158   -5.92954599874745   -0.82397829822906
C         -14.04913379786925   -4.11649235019734   -1.06722798990715
C         -13.94171429901742   -2.69425855245210   -0.80598955762876
C         -14.83997558483343   -1.74055602091986   -1.20141396348296
C         -15.97994853909895   -2.01724559257254   -1.98714811544332
N         -16.88622756321004   -2.17311923094362   -2.67373285769344
C         -14.69468217978179   -0.36265781206033   -0.93819532478409
N         -14.62105492285943    0.76610133884362   -0.74398971145270
C         -15.19391916259849   -4.79356212892520   -1.35266690100187
C         -15.28111770710327   -6.17432156824806   -1.67951366101002
C         -16.18247390695258   -7.08320018229042   -1.13287793347319
N         -17.13983704113998   -6.79896708478888   -0.14688462415195
O         -17.91652538808593   -7.68580941282828    0.15989245383425
O         -17.14287637007633   -5.67944715399528    0.34458340001149
C         -15.93108165747051   -8.38610414130338   -1.66628814585945
C         -14.86908879179708   -8.29907801698476   -2.51452075186422
C         -14.42750610817171   -6.93507447923605   -2.57897109737639
C         -13.50085807946429   -6.39941237257957   -3.46325307030745
C         -13.52119941012589   -5.10182728478538   -4.02471272703436
C         -12.57982867173552   -5.04135594348664   -5.01648575540577
C         -11.87949081583971   -6.28086438418573   -5.09693302577289
N         -10.92182150877161   -6.46792842404422   -6.08432528632556
O         -10.52584618555835   -5.48409121568171   -6.69391999431489
O         -10.52799144536527   -7.60570980161399   -6.35633494738254
C         -12.38086346451857   -7.14099817977060   -4.08974793318395
C         -11.91677758662069   -8.31452537483375   -3.49970891540904
C         -10.88622622320236   -9.12547436107515   -3.93827220959630
C         -10.54356171602447  -10.33937540753814   -3.33967854169550
C         -10.89669887135688  -10.79697290664007   -2.06664096912517
C         -10.30940448625259  -12.04997552262710   -1.82374282855660
O         -10.58242115933697  -12.67141364014739   -0.67983066182140
C         -10.00580349523503  -13.92083371687032   -0.36669405908131
C          -9.56817381099733  -12.43735036983093   -2.97325075953883
C          -9.65338676544817  -11.35088875762818   -3.91435673567902
C          -8.92456509008995  -11.24490536101685   -5.08507489048995
C          -9.18332653786499  -10.46293512174501   -6.23327064420035
C          -8.11571901374712  -10.59653357843011   -7.09398031355185
O          -7.89415044924853  -10.05401228246127   -8.26985171854962
C          -8.85987258174205   -9.14533709717635   -8.77639669929222
C          -7.11803290134867  -11.48216767928327   -6.47610410095764
C          -7.60624919870841  -11.89423504952695   -5.30018745863063
C          -9.04294538061363  -13.71809835411770   -3.32288990383977
C          -9.16069359734266  -14.19396196199503   -4.58853699321781
C          -8.69044397361587  -15.43305275701958   -5.10340642327520
S          -9.42902084594338  -15.99184246702988   -6.57519645810737
C          -8.45650359949846  -17.41571909861156   -6.59964610793198
C          -8.68718425830927  -18.36090018082322   -7.70337072513877
O          -9.55738885652115  -18.18844949406108   -8.51194578624916
O          -7.87410368925953  -19.42820252023871   -7.76250102399489
C          -7.59639154511385  -17.45515323822095   -5.52980002441185
C          -7.71618661516986  -16.33677353251838   -4.68388523806733
O          -6.91180678150300  -16.17692076525177   -3.57208443538325
C          -5.66081447849845  -16.60685043987085   -3.73374642226597
C          -4.77939046667579  -17.04377537122187   -2.80405977674455
C          -3.56452240228086  -17.73791490572569   -3.32042066314799
O          -3.18667577582273  -17.75565745496654   -4.46916441583416
C          -3.00025192050806  -18.44721315480894   -2.16049854977007
C          -1.93338833223966  -19.29849003613139   -2.11461139087917
C          -1.59285931598375  -19.90712317532034   -0.88623485207467
C          -2.36810257192706  -19.61982918364622    0.27548482099066
C          -2.02754526190676  -20.23648102778489    1.49632485988290
C          -0.96800746095312  -21.09765218708131    1.56089508191358
C          -0.20187972685497  -21.38083406847707    0.41111388120558
C          -0.50633837710444  -20.79779361685356   -0.78730908954071
F           0.82784158480881  -22.22919655490126    0.50355365579808
F          -0.64712022477362  -21.68302986896851    2.71940883860296
C          -3.46273361811134  -18.72913812600569    0.19924965239136
C          -3.77428824832478  -18.14850139707113   -1.00227794824330
C          -4.81367343563057  -17.19111996328357   -1.36399687356610
C          -5.58614218608930  -16.47364627269549   -0.49383980810593
C          -6.37955424655350  -15.38848624123720   -0.90072972884942
N          -6.98723991736311  -14.45169291153009   -1.16698012694766
C          -5.60653320294125  -16.66775769374979    0.90352755026823
N          -5.67932172952520  -16.79869309091597    2.04097101138132
H         -10.74336161365420    0.71644739297893    1.46633444186004
H          -8.23091481008082   -3.55598263976595    1.51795500321497
H         -12.62987496070537   -0.37938395733242    0.36929862645154
H         -10.14776887226909   -4.70528241857632    0.41001544224158
H         -16.14326792469982   -4.27844335074814   -1.24870193454592
H         -16.50425766592159   -9.25710019842566   -1.41242246375675
H         -14.49506537518821   -9.09156015828278   -3.13407994665320
H         -14.23924971244466   -4.33889065067453   -3.79318806596450
H         -12.38530848095356   -4.21372934762534   -5.67356036195168
H         -12.44117833296604   -8.61186122440218   -2.60358683104412
H         -10.35252423443470   -8.83755467648211   -4.82776003703431
H         -11.49628776432370  -10.27795912000388   -1.34381064380853
H         -10.38069818362840  -14.17324817013128    0.62419951318084
H          -8.91555999659541  -13.86175859977821   -0.33979174005023
H         -10.31893605258997  -14.68846974147080   -1.08038396241883
H         -10.08532228249106   -9.92765209293057   -6.44290373686398
H          -8.39226929155366   -8.64365870958258   -9.62076773360838
H          -9.15633346488884   -8.41829533074654   -8.01682941871922
H          -9.74709233713302   -9.68637607985233   -9.11459538761776
H          -6.17029030351540  -11.70581586973416   -6.92562528975171
H          -7.10458167488896  -12.48570752807102   -4.56014097447561
H          -8.56714223411787  -14.32674965144181   -2.56889482570713
H          -9.75212566983129  -13.63003040095201   -5.29812024114801
H          -7.19500528441716  -19.43533905240276   -7.07693485247686
H          -6.91493299163632  -18.26377579182132   -5.31926390805477
H          -5.30639629362614  -16.68752840604428   -4.76236208516262
H          -1.35877582912713  -19.50596878694733   -3.00434749194636
H          -2.60146649387546  -20.02976115664845    2.38613096496996
H           0.08935198770980  -21.02507901604275   -1.65746254656974
H          -4.03483745365054  -18.53437671813924    1.09237197250981
