110
 SCF done       -219.109179396415          0.000437697643
C          -2.17248962146117   -1.50452738138961  -11.14385733644340
C          -1.40561577403734   -1.71852669862538  -12.25395993685990
F          -1.43583972197115   -0.84898978728489  -13.27257272558282
C          -0.57307356504847   -2.85290889608493  -12.34410123386158
F           0.16996188271650   -3.03481818234741  -13.44453913171342
C          -0.52178728956650   -3.75963024410660  -11.32341272386065
C          -1.30136501091072   -3.56796592968480  -10.16556069167375
C          -2.14015392180752   -2.41904275485170  -10.07070595624030
C          -2.92573270150717   -2.20272547615574   -8.91711204830097
C          -2.87469137716193   -3.10604911880223   -7.88622439069471
C          -2.04429846807063   -4.25653099234555   -7.99537420039246
C          -1.27342049237677   -4.49153124146612   -9.09856091583323
C          -2.17373020574990   -5.08088218904744   -6.77901599704099
O          -1.59379665007077   -6.11564400066618   -6.53844188859007
C          -3.15205941006421   -4.36306269563316   -5.91522422254205
C          -3.57946920627804   -3.14919784878375   -6.61048700683158
C          -4.50737750658839   -2.24232123204233   -6.18699207782160
C          -4.83666949976001   -1.06042598829629   -6.88619871233298
N          -5.10399310685426   -0.05504720725959   -7.36990747560995
C          -5.27928199904003   -2.32856727414291   -5.00792246119896
N          -5.95369920045204   -2.32625094530133   -4.07862674982829
C          -3.62247505970608   -4.80518870011629   -4.73163195827984
C          -3.33231315251334   -6.06994215640099   -4.08571510466192
C          -2.10932014734585   -6.57988932686596   -3.76774803428027
S          -2.21682334164267   -8.05472570387855   -2.89906978557217
C          -3.92364047264849   -8.02221142437063   -2.96114515891729
C          -4.39382925356396   -6.91941295036389   -3.61542520285836
C          -5.81741095527154   -6.67864209356573   -3.89545608000203
O          -6.74726629047044   -7.15170411211601   -3.29554487489659
O          -5.91619860208195   -5.85487006813926   -4.97026893893589
C          -7.04068221838947   -5.23536205119789   -5.39810782207931
C          -8.27795742917241   -5.28191306832801   -4.88345400205400
C          -9.30560613913869   -4.47432791096409   -5.46218269882955
N         -10.63141088803890   -4.58706952991680   -5.13316941522587
C         -11.21431041807848   -5.54853961824798   -4.22992234258595
C         -11.27457332234656   -6.94462433836322   -4.84464001792517
C         -11.43435177522371   -3.67988179980800   -5.86163565058345
O         -12.64133390525012   -3.61529605827541   -5.75231541312909
C         -10.48804474699938   -2.95372306567598   -6.67214178174869
C          -9.18812088404138   -3.46258347309241   -6.40727504388875
C          -8.26438827156487   -2.71486325151171   -7.22494230061147
O          -7.05440444685864   -2.81257491178894   -7.37639695005716
N          -9.05764951281859   -1.78903208041408   -7.91728905985772
C          -8.46850458804343   -0.89762152966651   -8.88966829634072
C          -8.17802139345959    0.48604530212987   -8.31272972655190
C         -10.39154128804227   -1.92839619473381   -7.60195399839556
C         -11.52927254909819   -1.25321190703827   -8.13117986576070
C         -11.58664282372786   -0.12504933486513   -8.86737283671183
C         -12.80339046357039    0.41126529341460   -9.41796498691989
C         -14.00986448698764   -0.23585389743938   -9.49287692174758
S         -15.21583804595780    0.67419101476358  -10.30315236740843
C         -14.11619984944513    1.94781113942253  -10.58898676395797
C         -12.87740757228221    1.69460939986895  -10.06551425441028
C         -11.76403526679571    2.64058235891959  -10.17985088711290
O         -10.78624795627309    2.71530989008939   -9.48742757710218
O         -11.96884655284456    3.44677332893080  -11.26629966953824
C         -11.07930994907363    4.41941886017910  -11.58835006904463
C         -11.01411858886449    4.88194658532715  -12.84824638547237
C         -11.79022469929177    4.38489191473650  -13.94485955418199
C         -12.29762676313933    3.14227885571187  -14.15301961039747
C         -13.42994395092271    2.97308492771848  -15.11386394414490
O         -13.78886003920076    3.76009058161569  -15.95556048335346
C         -14.04739209888447    1.67835376921991  -14.75543502510365
C         -15.20673429131627    1.12139834762817  -15.21317473651010
C         -15.62898515527909   -0.11894821293360  -14.68306809920585
C         -14.83762884346550   -0.76129784296640  -13.68688610271340
C         -15.27194920837787   -1.99006268284991  -13.15101148187955
C         -16.43465417816611   -2.55902262744608  -13.58886380607159
C         -17.21397252791665   -1.92661246768590  -14.57899896756551
C         -16.82105587332153   -0.73220165977320  -15.11508931596049
F         -18.34749624881064   -2.50787605075331  -14.99018446841455
F         -16.84560017585314   -3.72641740145230  -13.08007956783114
C         -13.63373777237663   -0.16883864706830  -13.24439288856251
C         -13.24578748839340    1.03399649426525  -13.77111640777854
C         -12.07916448111256    1.86651013210675  -13.50180876119650
C         -10.93320027660875    1.44112874075227  -12.88622444044822
C          -9.74683306534695    2.20064377382732  -12.81720246379926
N          -8.75488292169026    2.77231825428631  -12.74991600794689
C         -10.78256312265107    0.18572686357830  -12.26503645744006
N         -10.60749634832236   -0.79732944562818  -11.69797562806796
H          -2.80439758798352   -0.63174382914544  -11.09125677025033
H           0.11883521706406   -4.62341205057413  -11.40816280223811
H          -3.55334638532368   -1.32765368548009   -8.87682934668772
H          -0.65332613162039   -5.37338708508221   -9.15490136076042
H          -4.35017355879452   -4.19902893973927   -4.20717192336122
H          -1.14909470517270   -6.15288501185554   -3.97443803008135
H          -4.50613231982380   -8.81678560852392   -2.53895800218903
H          -6.80806733955611   -4.61910840998455   -6.25837944460409
H          -8.51265275995676   -5.90772213953807   -4.03738876484003
H         -12.22774224378293   -5.19107295982172   -4.02632014618024
H         -10.64929643013084   -5.56311393704766   -3.29389796125847
H         -11.85410035179116   -6.92139067688774   -5.76440426090175
H         -11.75084912028604   -7.63111319197517   -4.15032774014185
H         -10.27690020317910   -7.31333105131100   -5.07100867151109
H          -9.12782529542425   -0.84263289812610   -9.75980525884495
H          -7.52478114724754   -1.36024469742921   -9.19398048766417
H          -9.05089470576025    0.90683044420208   -7.82019570590630
H          -7.87408743954554    1.15689977617871   -9.11149693007548
H          -7.36926036469884    0.42437891623049   -7.58922229504261
H         -12.45106444254989   -1.74828404691496   -7.85308333512817
H         -10.70488137540310    0.45718285164440   -9.07095514047200
H         -14.25807349082724   -1.20655511343778   -9.11423012703604
H         -14.43861274172502    2.83097334064262  -11.10410571650801
H         -10.47514636835836    4.80593743788879  -10.77738217132652
H         -10.39264153912584    5.74321148781141  -13.03777992057977
H         -12.07052674718295    5.11991156594857  -14.69372658595605
H         -15.79720765531732    1.62137837681710  -15.96570081424484
H         -14.68424285265625   -2.48856689600249  -12.39617869619326
H         -17.42962999049800   -0.26138514680704  -15.87111274704451
H         -13.05439493949127   -0.67430897063079  -12.48789049706102
