108
 SCF done       -224.340140220112          0.000688392840
C          -3.87037686730159   -2.80332581614667   -4.98409387040240
C          -2.66599919076628   -3.34551884547078   -4.63211773980303
F          -1.61775865312900   -2.55117461637081   -4.39129438312182
C          -2.50943228480859   -4.74266122735586   -4.52098908179217
F          -1.31756298632813   -5.23987203537995   -4.17697034405090
C          -3.55945259736745   -5.58093446268237   -4.77151885836648
C          -4.81225730583181   -5.05130764864292   -5.13502421265375
C          -4.97614384794525   -3.63818300069911   -5.23651208278083
C          -6.23882518186976   -3.08572751738000   -5.55111544997487
C          -7.31272395235664   -3.91841512275353   -5.72698058488394
C          -7.13842351737340   -5.32826695966815   -5.62497598148153
C          -5.92375233606373   -5.89334977538211   -5.35646631484925
C          -8.44570118127614   -5.98854154668220   -5.72052346076931
O          -8.68360703172374   -7.16929938942132   -5.84065145125956
C          -9.44540683300785   -4.87547445563909   -5.72007948823068
C          -8.73361412050660   -3.63256314250096   -5.90885958854328
C          -9.29214237795268   -2.39789591233956   -6.11240989618360
C         -10.68186743117314   -2.15889844421734   -6.15627520844860
N         -11.80025991941652   -1.90308137564663   -6.15967803952156
C          -8.54044994130551   -1.21876454712090   -6.29936981675260
N          -7.97683731383900   -0.23332777802256   -6.46533867537052
C         -10.79232741734783   -5.12487199540817   -5.59442170715281
C         -11.24290262083225   -6.26626159474226   -4.91314799342959
C         -12.34505812283107   -7.08901512382212   -5.14155569174332
N         -13.34341411226277   -6.88632241775094   -6.11541934980987
O         -14.29330957363799   -7.64544259461297   -6.10880567903449
O         -13.20508567421794   -5.94954879381372   -6.88207737485268
C         -12.25736850443011   -8.22301883934605   -4.29167857958885
C         -11.11136583436864   -8.12639801312942   -3.53139398106839
C         -10.47151577990798   -6.90560392013720   -3.82599329187840
C          -9.39242851161530   -6.26417062029537   -3.21234550394244
C          -9.29118295588531   -4.84750795498368   -3.01081746826982
C          -8.05532623964408   -4.56514724822286   -2.51761596343289
C          -7.30981420359850   -5.78326165765068   -2.41957916977876
N          -5.92555432969385   -5.73037883030855   -2.19516808586481
O          -5.42917749678086   -4.62165375813423   -2.05906995498741
O          -5.26704110507994   -6.75816809015920   -2.20541152667578
C          -8.13987697466982   -6.86632157759053   -2.76983633595474
C          -7.93380211441434   -8.25902377300921   -2.87381492733725
C          -6.93230588623032   -9.01500127776449   -2.34096746943405
C          -6.93667406905321  -10.41497701701173   -2.49951159248181
N          -7.73674617973785  -11.06330344914036   -3.39767431410352
N          -7.94751554928863  -12.28845693382694   -3.20259163711003
C          -7.26280645618578  -13.00956446930995   -2.32820040441788
N          -6.12933705262359  -12.44511561435925   -1.84384504784024
N          -6.05108110320091  -11.19194598528728   -1.86381415241077
C          -7.58929267018059  -14.39878645614051   -2.09603138445919
C          -6.59209639347689  -15.28299623723947   -1.66693763337786
C          -6.90962009412987  -16.61931758298547   -1.59872625036115
C          -8.18099810921829  -17.08098792279895   -1.95789935533967
C          -8.19549972553565  -18.56070005522336   -1.79781786008493
O          -9.09423269476300  -19.33588976120706   -1.99531691483617
N          -6.92933147172835  -18.89170370203287   -1.34738931500060
C          -6.09026923090516  -17.79576659933484   -1.20103432994846
O          -4.95094325899097  -17.83851198154860   -0.82111787853640
C          -6.50458685290937  -20.25328985572923   -1.09185063784757
C          -5.80806858027588  -20.85055049388237   -2.30883145013808
C          -9.17627739840265  -16.21736121226291   -2.35599527774732
C          -8.88899647493477  -14.84967439956642   -2.40295745532572
C          -9.94593635479234  -13.88921586428165   -2.69417234890217
C         -10.76257319657415  -13.96487041253677   -3.75584092348857
C         -11.88993916684879  -13.13994664972073   -4.07812474313588
C         -12.79186340720415  -12.48369666790077   -3.30852287094336
C         -14.13018417487358  -12.22731223060102   -3.95444491742116
O         -14.33815705608769  -12.09655910566848   -5.13207702915366
C         -15.09896221935875  -12.28137659203688   -2.84529940366200
C         -16.46331295384899  -12.30824777410895   -2.89911726547024
C         -17.19346971376249  -12.44472629784085   -1.69751806419810
C         -16.49268231348713  -12.55677775633532   -0.46050300614812
C         -17.22700539352546  -12.71086990852019    0.73251881778394
C         -18.59276435774759  -12.75018435979618    0.69990693192755
C         -19.28533531527809  -12.63728367478812   -0.52381411705804
C         -18.60152288174639  -12.48625066861147   -1.69779654563436
F         -20.62162048492195  -12.68275122920169   -0.52440075323665
F         -19.28789223214317  -12.89840227792781    1.83237546478513
C         -15.08027983924235  -12.51060115378810   -0.43462545265152
C         -14.39368870932795  -12.36535223266686   -1.61014432450629
C         -12.96344688024844  -12.23872145202188   -1.88789739172865
C         -12.06995320455994  -11.70643478182271   -0.99874240224841
C         -10.80548318568397  -11.18072841005893   -1.32248808078237
N          -9.81306722707057  -10.63181754160676   -1.51162571816850
C         -12.38402808833312  -11.45211956203061    0.35628068853584
N         -12.57238384901719  -11.24865232672320    1.46895154562049
H          -3.97301536915229   -1.73181314519752   -5.05397441349329
H          -3.43275568812751   -6.64671734137731   -4.66427068610133
H          -6.33169726256790   -2.01326425841751   -5.61243334733876
H          -5.82211436879625   -6.96469916571010   -5.26745357950049
H         -11.53493211852558   -4.46014791160354   -6.02196601954042
H         -12.98001904900790   -9.01806258857894   -4.28367217171008
H         -10.81413105828929   -8.80109881145572   -2.75151895064822
H         -10.10090740355582   -4.15571441049516   -3.14710077427528
H          -7.65695682888098   -3.60459566298526   -2.25265931629397
H          -8.69939145310539   -8.79046938080149   -3.42321584693983
H          -6.12182096631068   -8.59686616612706   -1.76513932972073
H          -5.60792711310923  -14.91675426783039   -1.42105432095116
H          -7.39871505903554  -20.82826911239845   -0.84056315010559
H          -5.82320202486512  -20.23100278951661   -0.23806355663668
H          -6.48142190800928  -20.86069534367484   -3.16291689442152
H          -5.50376793147495  -21.87026870193331   -2.09212292867040
H          -4.92459656266609  -20.26816721272877   -2.55950840528984
H         -10.16286469003004  -16.58131699621369   -2.59805827039568
H         -10.03870543065246  -13.08001091613841   -1.98691903165846
H         -10.55583153037898  -14.72876630174708   -4.49612214221786
H         -12.17674237639767  -13.17648788753657   -5.12599505208480
H         -16.97685090924346  -12.23101550787101   -3.84511403633029
H         -16.71360435604272  -12.79368838007193    1.67771364109755
H         -19.14594912489249  -12.40101256394787   -2.62512193258250
H         -14.57622151681220  -12.61078481568027    0.51344990060371
