112
 SCF done       -221.236477760353          0.000687334773
C         -11.54873789419278   -0.58749558345485    0.55451485830147
C         -12.47847318334778   -0.25831336655285   -0.39076753360574
F         -13.61252400758643    0.35938091938750   -0.03461068047655
C         -12.25866955235596   -0.56177158865178   -1.75007796309153
F         -13.18819793999836   -0.22587607485306   -2.65478726028583
C         -11.11141614529094   -1.19047161875348   -2.14459612039451
C         -10.13304729078425   -1.54296309666750   -1.19432849864458
C         -10.35379255496359   -1.23665152152738    0.18067101235393
C          -9.38749803224390   -1.57981918009902    1.15150314302619
C          -8.23355810156420   -2.21083666563991    0.76015343564181
C          -8.02522191938479   -2.51650535473309   -0.61322081094705
C          -8.94008515335248   -2.19521113045468   -1.57396354168099
C          -6.73711878470151   -3.20815406326576   -0.77850315262842
O          -6.22111895636418   -3.55215823690647   -1.81345324310725
C          -6.20113797189796   -3.38285718434476    0.61125789241576
C          -7.08837366780131   -2.67761854285216    1.52887047317505
C          -6.88756404286038   -2.47923217751196    2.86673913385165
C          -5.73403294048463   -2.88029086040027    3.56840960791299
N          -4.79986233232806   -3.14770218352360    4.18149094675848
C          -7.79140472315267   -1.80501747578825    3.71734851157976
N          -8.48118785583246   -1.26604320833567    4.45887134050343
C          -5.14230809663044   -4.15982160083866    0.91115183828678
C          -4.44955182659412   -4.96802286128401   -0.08459534563452
C          -5.19714389430852   -5.86701164921835   -0.84897604874778
C          -6.64403112954063   -6.19030871296124   -0.80624755595946
O          -7.50781836850783   -5.74910706494265   -0.09569562612459
O          -6.88607398078217   -7.13858449085296   -1.73280763308159
C          -5.70847862276588   -7.49301033196700   -2.43872521736116
C          -4.62461081060446   -6.67269447277281   -1.82262335298273
C          -3.26366916921221   -6.62501754308900   -2.07069671304473
C          -2.50515599264772   -5.77703609548073   -1.29372595143824
C          -3.05612743992303   -4.94591278103804   -0.29696685836851
C          -2.10546776813674   -4.14797224419774    0.43753822517686
C          -2.28960057266588   -3.15868717275952    1.33977296683425
C          -1.16502787522744   -2.57273394927400    1.99545265202076
N          -1.26454131729634   -1.60549769108958    2.96319406959446
C          -2.47389597818853   -1.02282452329463    3.47652492902046
C          -0.00126304810523   -1.21096755007176    3.44868862696757
O           0.16593968930439   -0.31751857707211    4.25403006686817
C           0.92857027827106   -2.03542539403226    2.72107298226356
C           0.19096146803288   -2.84477615132937    1.81784653568053
C           1.14759436901627   -3.60747787192411    1.05512336113253
O           1.01347626280094   -4.41951873216761    0.15646772064558
N           2.40504572279502   -3.21401061289092    1.55280145192895
C           3.60226379792550   -3.82544738745761    1.04412038022725
C           2.28614227402216   -2.28057263702191    2.55432979289756
C           3.30863377056161   -1.61897899992088    3.29615203780350
C           4.61134089445483   -1.50668922787992    2.97868892422696
C           5.55644023534000   -0.70478487121184    3.73894933417440
C           5.60507997381605   -0.72028158222964    5.13341501521301
C           4.86945693255925   -1.54761212044195    6.12298634430256
O           4.06403273013185   -2.41697093873080    5.94477627301577
O           5.30516670762238   -1.20104157089507    7.35595880604927
C           6.30522571092151   -0.19967357603234    7.29832332505267
C           6.52194515642451    0.05056461881404    5.84168531182095
C           7.45361765414374    0.83798370145518    5.19317196390565
C           7.45040038480581    0.82964478246960    3.80931885019118
C           6.51333317960965    0.09765479472394    3.07812471069492
C           6.51708191474228    0.18383553898754    1.62070491654451
C           5.39987149958351    0.35305672680610    0.89249714513131
C           4.13902419727511    0.69452725757649    1.48912298012791
C           2.91995930245949    0.37844904038059    0.98503487114078
C           2.72220839297822   -0.55394372298817   -0.14983680851661
O           3.58522362026181   -1.16036132971754   -0.75154592866264
C           1.26546564997860   -0.63366773589487   -0.35327125220796
C           0.56800339959764   -1.40254991932807   -1.24097003642782
C          -0.84192461382027   -1.33402959644033   -1.24611500153102
C          -1.49744903453899   -0.44163687255045   -0.35006644058515
C          -2.90332486793309   -0.35573211351441   -0.38214348070292
C          -3.62570934637002   -1.12393885119269   -1.25073092931757
C          -2.97947220473026   -2.02028282284603   -2.12457524370158
C          -1.61512205836572   -2.12111126390627   -2.11968639496242
F          -3.69575668416487   -2.76383972030384   -2.97306818976668
F          -4.96410901458618   -1.01381130112416   -1.26324149705583
C          -0.75064729910800    0.33195762614982    0.56494656768217
C           0.61451005526844    0.21876734530631    0.58400285476906
C           1.61578690400611    0.80223240856376    1.47138098186215
C           1.35570211058541    1.56369824065114    2.57839013950097
C           2.32682437985351    1.97805507754757    3.51367347582610
N           3.07782169041225    2.33059551270267    4.30750509602287
C           0.06614216804959    2.02409791092141    2.92776640003232
N          -0.95473250428582    2.46883347159099    3.20376070202451
H         -11.73298766612206   -0.34782427061096    1.59014895161517
H         -10.95822790078063   -1.41637512415613   -3.18822189299435
H          -9.58720561887376   -1.34015513270720    2.18353971439444
H          -8.75445782856640   -2.43973430902367   -2.60854602576514
H          -4.81079881904504   -4.28229258104221    1.93459562534675
H          -5.85069603301640   -7.26117958070815   -3.50016100193960
H          -5.54591639237658   -8.57124001915161   -2.33249448141625
H          -2.81152272460881   -7.23738888527792   -2.83468379125854
H          -1.43626702450807   -5.73752138129593   -1.44333006971273
H          -1.07779009769230   -4.41521073279082    0.22530852513131
H          -3.26663182558962   -2.78155459174235    1.59974747466096
H          -3.08028113177912   -1.76894112367578    3.99517198395194
H          -3.06118176830555   -0.57265304873184    2.67429673774706
H          -2.17669364417461   -0.24551976125599    4.18083910916794
H           3.29097708455191   -4.70651429233349    0.48092489400608
H           4.25801868418742   -4.12431111454352    1.86124230154345
H           4.12392937501185   -3.14900096923088    0.36116710949546
H           2.92267608870155   -1.07897587863056    4.15029109503090
H           5.00607520069943   -1.96248661074770    2.08276919440306
H           7.20185711571926   -0.56900465715252    7.80790293747046
H           5.94661483924236    0.69303198095763    7.82371563912437
H           8.16717024451054    1.43005586677980    5.74392254664491
H           8.17081013275209    1.42768546639322    3.27082406035505
H           7.47410554101168    0.07185394800411    1.12964597483362
H           5.43125026252588    0.26281429610445   -0.18437317211219
H           4.19624425278198    1.28741499325489    2.39223893798605
H           1.08476062709731   -2.06101277531247   -1.92200669303202
H          -3.41707329719086    0.33239348979963    0.27197375301787
H          -1.13153109271069   -2.80729589069506   -2.79669877548098
H          -1.27520249009256    0.99006306608599    1.23821666824470
