90
 SCF done       -193.337233600382          0.000463347222
C          -4.74706823048579    1.46775462775510   -4.97440103027308
C          -4.71421687845810    1.50412399616426   -6.34016630563901
F          -4.64623136555851    2.67704444544099   -6.98076881818690
C          -4.75074908159977    0.31120321123777   -7.09123634011511
F          -4.71596461016293    0.37774162332040   -8.42775426711050
C          -4.81998026168251   -0.90186503502439   -6.46541058225496
C          -4.85389537190115   -0.97249502920561   -5.05902737966273
C          -4.81767695097219    0.23280594812410   -4.29841579112916
C          -4.84931902700451    0.18637991676659   -2.88632615017867
C          -4.91473093482198   -1.02799966432244   -2.25413795687034
C          -4.94445267269903   -2.22659478560891   -3.02141626204948
C          -4.91608881183895   -2.21282232616071   -4.38673784835453
C          -4.97743502731457   -3.39218258122026   -2.11893037669821
O          -4.95439956743981   -4.55975967306503   -2.43760527233460
C          -4.94034852508679   -2.82764820295719   -0.74085059985767
C          -4.95831545771556   -1.37803729716467   -0.83884685942242
C          -5.08042077025355   -0.50033067987522    0.20394647290790
C          -5.12358384978214    0.90249002715699    0.05337766943496
N          -5.16055862459817    2.04738211620527   -0.01211596525216
C          -5.21919175981003   -0.87893483482733    1.55728336247071
N          -5.36036494803937   -1.11976167027762    2.67033637941173
C          -4.71720326482282   -3.57282500170815    0.37455138893118
C          -4.79732912630220   -4.99336162343069    0.45281330791848
C          -3.99683553402170   -5.79047804416832    1.23446833910758
C          -4.34896353827567   -7.16284544229318    1.01985943341869
C          -5.48988627633568   -7.14475275075779    0.09112279137836
C          -5.74406678881372   -5.85385201163900   -0.24847744720003
C          -6.22055088713819   -8.24856792876585   -0.36643063258205
N          -6.84712528384523   -9.12787242641917   -0.75694641050153
C          -3.73400180896521   -8.27098129080822    1.54869572879723
C          -4.07910624509289   -9.64001862814677    1.34156952593089
C          -3.18819189474581  -10.42955582250298    2.03024992151831
C          -2.23153595114782   -9.56613603958921    2.70671952344699
C          -2.54998123619246   -8.27562508124997    2.43565824796244
C          -1.84934429786633   -7.16141083767646    2.91277715037902
N          -1.25139783268889   -6.26910589177688    3.31908593764678
C          -3.18188304161562  -11.84358338251330    2.08772610602667
S          -1.90945174424834  -12.73303782758995    2.93948187118072
C          -2.69022149039269  -14.21410015196326    2.48702929712004
C          -3.84152358054275  -13.91084972335700    1.73909521610054
N          -4.07154975589091  -12.61316907766726    1.54037539102262
C          -4.77456653460437  -14.91153571820418    1.17366708781968
O          -4.63413280815358  -16.11020283358433    1.24938063306258
O          -5.79523364444532  -14.31653429882606    0.56772157747577
C          -6.76222563005214  -15.17143701149529   -0.02188045650501
C          -2.20771978203190  -15.49308065441568    2.83611650542450
C          -1.03073342327006  -15.69619259533434    3.48490615646152
C          -0.50321153327677  -16.96364540655801    3.84811358736179
C           0.78746649266528  -17.04844279227722    4.43237318692826
C           1.39258872560492  -18.30372829907603    4.79648643508568
N           2.52966270354055  -18.31115293880798    5.50751377511013
C           3.14594269132414  -17.18447871181527    5.74472699485509
C           2.62771383770258  -15.94520054614622    5.23517040737508
N           1.46391039921048  -15.90710477771578    4.63955958032710
C           3.36227518499566  -14.74422493381344    5.40063771202536
N           3.98267153133023  -13.79322817408470    5.54976244103698
C           4.33203631207526  -17.19881397813312    6.52118140516561
N           5.30280471364381  -17.18551399607652    7.12846380575253
C           0.77685838464451  -19.53847679321340    4.48937478966568
C          -0.53454943855222  -19.45555975229381    3.98357090231582
C          -1.16832215920580  -18.19686268893777    3.66861549998516
N          -2.40373174138904  -18.38489118652575    3.20083198421917
S          -2.73086081022341  -19.94769284335631    3.15417433612918
N          -1.33402136504978  -20.49353852870533    3.72117447779225
C           1.40948247182077  -20.80244545788919    4.68876037059366
S           0.43538856149530  -22.21245890892246    4.95968585399589
C           1.83927734967285  -23.21531833504737    5.11182396961832
C           1.79003758775130  -24.66284036831350    5.39072511841182
O           2.78736510614129  -25.32657212635782    5.47347270085273
O           0.57279155087361  -25.20225062693111    5.54712479904320
C           2.99261847646311  -22.49770571264502    4.91428457286151
C           2.76441970718854  -21.13385426270413    4.66584782140437
O           3.72744298825148  -20.25215649936296    4.34701072302635
H          -4.71924861953848    2.38991271422759   -4.41517398248945
H          -4.84649137529197   -1.80544351862724   -7.05409060897923
H          -4.81296608947238    1.11427893365864   -2.33872642348113
H          -4.93900265924294   -3.13658816121317   -4.94469159511378
H          -4.39921647878721   -3.07613671051830    1.28364337990076
H          -3.19700822129175   -5.45319769316063    1.86450655749415
H          -6.53901911733556   -5.51056477803136   -0.88132340392010
H          -4.89653758935613   -9.99765584897672    0.74835705106805
H          -1.41840951787367   -9.91449364921443    3.31695210348934
H          -7.22184046077774  -15.80729825209889    0.73813989662149
H          -6.29684436230675  -15.80896395584313   -0.77684937961351
H          -7.50319280525719  -14.51856543440613   -0.47504993418243
H          -2.82652334235535  -16.33055653525884    2.54326236059442
H          -0.40534281146314  -14.84982496717232    3.74218380251978
H          -0.14396798966372  -24.55962002452201    5.45557442518798
H           3.96637570778315  -22.95454937946186    4.94746753451490
H           4.59300213225473  -20.67597613052219    4.40894869527224
