123
 SCF done       -245.854085239185          0.000386895611
C          -5.70212770096102   -1.28636366853904   -5.57504473772018
C          -4.41787184046257   -1.08088199028175   -5.15526420461533
F          -3.65711765888235   -0.15058819942851   -5.74552172672043
C          -3.87750111605987   -1.84302597096415   -4.09956804183984
F          -2.61501748498264   -1.62145767437769   -3.71065586186667
C          -4.62962993218659   -2.79984094122281   -3.47793331155720
C          -5.95617821218148   -3.03665197169406   -3.88842468357859
C          -6.50387185975481   -2.26617692247680   -4.95564814843976
C          -7.83269833460439   -2.48605001306903   -5.38424304614654
C          -8.58616384540803   -3.44859344988520   -4.76593071919317
C          -8.03078674741380   -4.21851002765879   -3.70549715791181
C          -6.75174677851970   -4.02494490066381   -3.26773424911163
C          -9.02872580516997   -5.18998864038105   -3.21796944022559
O          -8.88357146203490   -5.96296413146329   -2.29503337280794
C         -10.19357663701419   -5.04243313722311   -4.12773313712771
C          -9.95734181685848   -3.88955318490633   -4.98153186631537
C         -10.89805228235396   -3.27107270197725   -5.75783454935812
C         -12.25988728005828   -3.64505464228089   -5.78469837724819
N         -13.38578169127506   -3.86636409818071   -5.80028505591008
C         -10.63652729704111   -2.13937166547347   -6.55836213981100
N         -10.46818619710650   -1.22201166064177   -7.22680587267310
C         -11.16746763094846   -5.96849877484665   -4.33811999026672
C         -11.49262476224407   -7.09036869126388   -3.52537455373447
C         -11.76675533219579   -8.38189738021954   -3.98044880663862
N         -11.59262331195529   -8.84971580995191   -5.29084352973341
O         -11.62367933532409  -10.06029945199716   -5.46076632813031
O         -11.39775045887335   -8.04314492364633   -6.18311527479669
C         -12.05804857545065   -9.23663418938973   -2.87158404161174
C         -11.92438718070415   -8.50562166431054   -1.73324890520225
C         -11.53646602432678   -7.16132103414619   -2.08293652488629
C         -11.27084123663835   -6.14443292327573   -1.16810485347178
C         -11.60061966333978   -4.77793515774969   -1.20135712099383
C         -11.34868319879929   -4.23266422798407    0.04192246190816
C         -10.78521542596807   -5.22181474815933    0.88450738299047
N         -10.34646772280854   -4.99516134445964    2.19411368017528
O         -10.48132110266516   -3.87483778436248    2.65472801485727
O          -9.86436124542545   -5.93678018327045    2.81086546039507
C         -10.66456322942825   -6.41683463501353    0.15144027290001
C          -9.97685451402066   -7.58517941713800    0.45441858438223
C          -9.53715718685434   -8.43926039320158   -0.54829356487349
C          -9.23332605759613   -9.79999144421451   -0.52531064083633
N          -9.32109075540891  -10.72410188890309    0.49014294349297
C          -9.46865736945298  -10.45846198349650    1.90140351994881
C          -8.18503867441925   -9.90830185415739    2.51562696921617
C          -9.18532579495599  -12.04442836110256    0.01561684219252
O          -9.23320139564687  -13.02619334186361    0.72043504484390
C          -9.02263510460643  -11.89066325194530   -1.42056673245130
C          -9.02130135525429  -10.52782786106730   -1.71508103482268
C          -8.93613336665021  -10.38116785709696   -3.15823211469340
O          -8.89482724639101   -9.40824253834448   -3.87373542540147
N          -8.90249936918180  -11.71110601225072   -3.64299253019362
C          -8.94352234147281  -11.94646318799427   -5.06762106879023
C          -7.54460063951319  -12.01977975808434   -5.67286811254074
C          -8.93777518025584  -12.62255298627642   -2.62296881954952
C          -8.91465957521277  -14.03131642792556   -2.65294291691540
C          -8.64331724541807  -14.87096044848851   -3.69226075939989
C          -8.65888387753903  -16.27717293415567   -3.57498452772281
S          -9.07122637121796  -17.07286951237076   -2.08667445536575
C          -8.74789654650440  -18.63070752992614   -2.77503205002704
C          -8.41749794308579  -18.53010566569895   -4.12276055916390
C          -8.35735278819598  -17.20722384254591   -4.57028276005681
C          -7.91485030887539  -16.83525513263372   -5.95080659417588
C          -7.93602836797175  -18.01639678913041   -6.91632939336260
F          -9.22665356974704  -18.25063724875799   -7.34213525364656
C          -7.42886403982441  -19.30995057202270   -6.27002006706622
F          -6.12115165036984  -19.12189381855701   -5.88255651096542
C          -8.28349401512566  -19.68585318521162   -5.06483318300358
C          -8.86959895208451  -19.76844932629465   -1.92915066717056
C          -8.12429204897911  -20.90065778622606   -1.87445268547103
C          -8.65829644115731  -22.07241303439634   -1.11571736508430
O          -9.61522264791685  -22.07188352870864   -0.37973168033328
C          -7.80729172697395  -23.20983796368234   -1.50899890255661
C          -7.94009725807839  -24.52947203800382   -1.18410284413478
C          -7.01277134803715  -25.46062874349735   -1.70163470232439
C          -5.96674791553560  -25.00415593859862   -2.55604966817892
C          -5.04926871882684  -25.93934719007359   -3.07587862216627
C          -5.16250913038521  -27.26405621232266   -2.75922550007900
C          -6.19648306095056  -27.71411095556186   -1.91237412996600
C          -7.10298617863124  -26.83220307086432   -1.39400830415532
F          -6.28330172010872  -29.01718183293188   -1.62108521364930
F          -4.29031228263503  -28.15034657536927   -3.25250280958134
C          -5.85086928248101  -23.63093961449315   -2.87034150762843
C          -6.75330670033865  -22.74345680191510   -2.34632675760843
C          -6.85660709951796  -21.29026427449413   -2.46458421508326
C          -5.84023954098022  -20.45694763053526   -2.85058364293107
C          -5.87222302039320  -19.05187475755852   -2.74058020417041
N          -5.82526192231867  -17.91047727853823   -2.63347969568933
C          -4.59474985903003  -20.91534543746080   -3.33278256477424
N          -3.57299894523254  -21.24639733894967   -3.73505481272209
H          -6.10065955792461   -0.69333427038359   -6.38332956461934
H          -4.20148971161972   -3.37439474614025   -2.67153421692468
H          -8.21997660509851   -1.89424921569508   -6.19815049864333
H          -6.35222569417626   -4.61982722479276   -2.46050635943359
H         -11.73309153581649   -5.90673813802671   -5.26208759146146
H         -12.33889901257048  -10.26788109870806   -2.96614185853144
H         -12.16977162884940   -8.82190381605101   -0.73776703851120
H         -12.07889272847930   -4.27905197965440   -2.02309424633209
H         -11.53883482750049   -3.22141393162819    0.35148475266292
H          -9.75499680437152   -7.76325035735025    1.49888854692488
H          -9.40887623464023   -7.99634508370385   -1.52996536776513
H          -9.71587549594332  -11.41917860652472    2.36225802733136
H         -10.30370899064608   -9.76932484591964    2.05534030771668
H          -7.38788011393089  -10.64329942903016    2.43411171294319
H          -8.34849882198539   -9.68669098925012    3.56614332986299
H          -7.86766988453445   -8.99662811085665    2.01516404775756
H          -9.48586639252575  -11.10357434499405   -5.50654387055570
H          -9.52194276854950  -12.85164682132793   -5.25963456026226
H          -7.03939673212422  -11.06659199135252   -5.54070049813667
H          -7.61560672322582  -12.22664962563350   -6.73697522327295
H          -6.94498430974602  -12.79434357984734   -5.19790701297411
H          -9.10682235315553  -14.47420457905993   -1.68203785928032
H          -8.36524273285371  -14.48689780531881   -4.66071104890798
H          -6.88841789402078  -16.46041136386804   -5.89649968629435
H          -8.54868035513602  -16.04829998148143   -6.36512587695555
H          -7.35300708749367  -17.78439520049569   -7.81597430075401
H          -7.42099598506114  -20.12277908138491   -7.00699810827553
H          -7.86132787858976  -20.56390075590009   -4.57887292670386
H          -9.27819079679839  -19.95332043338483   -5.43570967782240
H          -9.68264549426307  -19.73118564981557   -1.20811517711336
H          -8.74215167166337  -24.85725820944490   -0.54060724699149
H          -4.24957377635269  -25.61169816056776   -3.72161003363558
H          -7.88811242549015  -27.19205077762220   -0.74769531769396
H          -5.05455110668449  -23.31576470227111   -3.52544153309485
