122
 SCF done       -243.531083697952          0.000479632153
C         -13.89837193059076   -1.14583336333545   -5.00364592277889
C         -15.17188900405799   -1.41530346401876   -4.58706665689300
F         -16.16454577778868   -0.56046765722142   -4.85927099936106
C         -15.45732403519408   -2.59393948976608   -3.86758312014709
F         -16.71437327415342   -2.83348198058837   -3.47389878556342
C         -14.46444505261882   -3.48582119873520   -3.57384399521554
C         -13.14172772037345   -3.23672489346612   -3.98944816582659
C         -12.85177207293974   -2.04560494680390   -4.71752417771736
C         -11.53206951376560   -1.77537209679431   -5.14503972005461
C         -10.53528997747875   -2.66927649568030   -4.85329369822785
C         -10.83336159559846   -3.85904904950076   -4.13041593977966
C         -12.09889161220418   -4.14481525636319   -3.70334965114982
C          -9.60825085670656   -4.66264963929162   -3.96406017385871
O          -9.50764727551618   -5.71792827101632   -3.37886739127181
C          -8.55406648960400   -3.92616633748507   -4.71456692764050
C          -9.10936897063637   -2.65497880435056   -5.15066043136408
C          -8.39161044828693   -1.60266074906808   -5.64673498024515
C          -6.98288388081768   -1.59927817157592   -5.74843800303005
N          -5.83862641816239   -1.52794644097301   -5.79495181904827
C          -8.96397727168717   -0.37463270660220   -6.04136202099539
N          -9.38625240047853    0.63783083960893   -6.37696159094946
C          -7.37842620983068   -4.46382548406313   -5.12615322550514
C          -6.81622692909835   -5.69644586076414   -4.67643529530943
C          -6.35159126598786   -6.72187222681508   -5.48226978595238
N          -6.40399739483294   -6.75074437243211   -6.88857182167425
O          -6.92580994883941   -5.80622360736905   -7.45814967286658
O          -5.92342340259213   -7.71659335693111   -7.45007352287069
C          -5.89926801584818   -7.81801816609301   -4.66883575152713
C          -6.13248555634458   -7.50318717931038   -3.37276887778641
C          -6.70511185079512   -6.17703269542913   -3.30518469609268
C          -6.97582022424145   -5.45405705034996   -2.16018748605894
C          -6.83564545445845   -4.04956026869524   -1.97662137644660
C          -6.92628098746565   -3.77068112692428   -0.64138029042718
C          -7.22156760572930   -4.97527418945297    0.06954215223690
N          -7.45693894826416   -5.01575229777233    1.45228484446384
O          -7.72642762881068   -6.09295774548370    1.96608340502247
O          -7.36769149756899   -3.96972148517262    2.06993939382683
C          -7.30886125139932   -6.03187780850260   -0.84159699860380
C          -7.80809438933375   -7.32346834767355   -0.61316360010117
C          -8.32912337044118   -8.09674056771904   -1.62062956590475
C          -8.75450937753013   -9.43523237486381   -1.61723697318708
N          -8.83763259525981  -10.36714205587246   -0.61112540394720
C          -8.63897077883868  -10.16331188642658    0.80581036274137
C          -9.79577020819692   -9.39816400519664    1.44142326429551
C          -9.25925113403992  -11.62524881691822   -1.09459296065076
O          -9.42093927425884  -12.59997702280626   -0.39553737322491
C          -9.41270045841459  -11.42743714218540   -2.52409524289086
C          -9.11032033822592  -10.08960727496398   -2.80856538351254
C          -9.21339085304476   -9.90250407132898   -4.24039390565686
O          -9.03944511996504   -8.94318691496846   -4.95512125012970
N          -9.59598134700289  -11.18017324559924   -4.73081695683222
C          -9.79132395052376  -11.35678180785664   -6.15060270693098
C          -8.51313652613506  -11.82411457530705   -6.84430184876823
C          -9.70280524248317  -12.09755123687491   -3.72106763611791
C         -10.05498771171989  -13.47451516644729   -3.75447786436651
C         -10.16591969472023  -14.30569986900331   -4.81484228251885
C         -10.53849800209947  -15.69844304482730   -4.74002367332094
C         -10.42238943503546  -16.48313795947304   -5.88862242236895
C         -10.77207218778565  -17.82231696349214   -5.87455285344242
N         -10.66352549864539  -18.56541625735065   -7.10673149118583
O         -10.10220137915726  -18.02606317707894   -8.03448151992583
O         -11.14158943568263  -19.67858419530781   -7.13712740922191
C         -11.26640808803287  -18.44326804180116   -4.71901551484466
C         -11.38569898386642  -17.64575292431377   -3.57477965673318
C         -11.03249591411344  -16.31523568788402   -3.57961198853329
C         -11.59715943941739  -19.86219998330054   -4.66977344140383
C         -12.78659801568710  -20.36949075240119   -4.28611161417595
C         -13.91782704659479  -19.55818668383069   -3.98646282534293
C         -15.16053323955070  -19.92752508468303   -3.58434423967295
C         -16.03635513898070  -18.87750050904475   -2.98321590425222
O         -15.86227071277711  -17.68203759735258   -3.04036208609486
C         -17.08739359405332  -19.61234991727397   -2.25793489224945
C         -18.07188018834698  -19.12270648191132   -1.44755934975401
C         -18.95526212893779  -20.02616328318834   -0.81724076777910
C         -18.79269408342971  -21.42599325844459   -1.03192213188016
C         -19.67092584856573  -22.32409405087265   -0.39240289425202
C         -20.66559203203033  -21.85452929522313    0.41855062636320
C         -20.82677964949253  -20.46943595997672    0.62851461214112
C         -19.99034746319820  -19.57338454034600    0.02434838303568
F         -21.80931920513129  -20.03843790358635    1.42918939453552
F         -21.49934043758318  -22.70807697148707    1.02436024873559
C         -17.76760346525832  -21.90295836210619   -1.87995431996808
C         -16.93201886348727  -21.00830441939219   -2.49449090224312
C         -15.83484250668059  -21.20509626471351   -3.44174934154919
C         -15.65064577015532  -22.33157598703146   -4.19414711854587
C         -14.77562173772654  -22.44109099045039   -5.29765464689641
N         -14.12674235765681  -22.58942612324572   -6.23149639278208
C         -16.40478416087377  -23.51434725349644   -4.02706761767251
N         -16.97370002344145  -24.50526856952387   -3.92412042582015
H         -13.69733483417982   -0.23889848879457   -5.55213102663836
H         -14.69926779126995   -4.38288233264706   -3.02264007148887
H         -11.34234823328194   -0.87151238752743   -5.70147520628139
H         -12.30098192318944   -5.05371652879689   -3.15723298177194
H          -6.83509048715290   -3.97625916137652   -5.92900898889528
H          -5.46505494479479   -8.71426228769224   -5.06758985908934
H          -5.85064899763236   -8.07812779607255   -2.51220326951651
H          -6.56519697843647   -3.35726978526458   -2.75105949627656
H          -6.80443563563382   -2.81531273502078   -0.16582831524848
H          -7.82932544381853   -7.64084935682947    0.41999135900292
H          -8.46334995490971   -7.63163399641546   -2.58900773336608
H          -7.68854461706091   -9.65056825733894    0.97171425581544
H          -8.57592191992204  -11.16358642838256    1.24415538293927
H          -9.95080766817319   -8.43990043921081    0.95210279769369
H          -9.57912616688822   -9.21652490527192    2.48976872782451
H         -10.71249005531460   -9.97825943597512    1.36816024976646
H         -10.06683743295077  -10.37376058078817   -6.54412487314473
H         -10.62236739634040  -12.04527248821196   -6.31728465940034
H          -7.75385106338913  -11.04930535721553   -6.77557357632189
H          -8.71327813526831  -12.01425532293584   -7.89490205415940
H          -8.12161071725210  -12.73111879126236   -6.38813666443620
H         -10.20559520840123  -13.86805336503216   -2.75742053336955
H          -9.93617003822607  -13.96121940493318   -5.81119152457777
H         -10.05970517013441  -16.06066523619263   -6.81476170859280
H         -11.74542791338530  -18.09963812115699   -2.66385552774409
H         -11.15057256712814  -15.74281938039967   -2.67359996693394
H         -10.80710953905382  -20.54688079794377   -4.94814054391578
H         -12.88962045260642  -21.44129951842830   -4.22877219897265
H         -13.76496618532778  -18.48366548339013   -4.01059992144648
H         -18.17424763175567  -18.05979242355788   -1.29019508359238
H         -19.56423507988057  -23.38663951739587   -0.54549832217242
H         -20.12687714026421  -18.51705449775920    0.19522880562382
H         -17.66411452421422  -22.96751541692489   -2.01500279125905
