85
 SCF done       -168.523552017116          0.000741627330
C           0.07634715965494    0.12182149895170    1.33965727599936
C          -0.03144616579853    1.41783350296624    1.75799453829558
F           0.99976970451905    2.26021227694442    1.61254760450301
C          -1.22399628210355    1.88533168590228    2.34765399145825
F          -1.29930257513945    3.16057920035343    2.74967366244704
C          -2.29263599974015    1.04904542351900    2.50914634901335
C          -2.21249787206272   -0.29311634999878    2.08868050530576
C          -1.00677270732548   -0.76811550455915    1.49412499563279
C          -0.90019581692277   -2.11165765264492    1.07240023839717
C          -1.96655339801907   -2.95856691591133    1.24013085754077
C          -3.16958772229623   -2.47163759045617    1.82313498604813
C          -3.30096275949129   -1.17876530504225    2.24278288646121
C          -4.17045350593681   -3.55327486530662    1.87714169788032
O          -5.26316780834810   -3.50186208950210    2.38815585774288
C          -3.52290295882931   -4.72393408256167    1.20792679745929
C          -2.13340193529602   -4.36951843570506    0.91945719998549
C          -1.15316685689661   -5.20800363175804    0.46999370899434
C          -1.31435364906404   -6.58725373779889    0.21812850079315
N          -1.36770445861912   -7.71244046513455   -0.00468600708226
C           0.17241647719111   -4.80201006326295    0.20244270153103
N           1.26346066088866   -4.52968795035840   -0.02584320388723
C          -4.15144153071019   -5.86413905222349    0.88006284220548
C          -5.61746053072415   -6.10354956307162    1.07750811487040
C          -5.90176028591482   -7.55626559934082    1.27669436744600
N          -5.80484294358177   -8.15977152876135    2.44017347497436
S          -6.19110101825228   -9.72555103724787    2.26555994059944
N          -6.49981832440816   -9.66618795090007    0.67205145395017
C          -6.30988685894469   -8.43920138762233    0.24296963714295
C          -6.45095339162597   -8.02211517182188   -1.18993893731896
C          -6.69769781309438   -6.55070215512160   -1.22247492149523
C          -6.29295132881123   -5.66344805828910   -0.19141208775676
N          -6.56264075074436   -4.40866192007461   -0.47080931049852
S          -7.28506695625543   -4.32912426300402   -1.91818261584537
N          -7.26743753462207   -5.92429468105619   -2.22698386737077
C          -5.14810685034402   -8.34944764040456   -1.86353682046763
C          -4.14891615255861   -7.49179715552049   -2.19087062781481
C          -3.03783862080154   -8.24809697845554   -2.71121756028770
C          -3.47442606193330   -9.65264316597570   -2.70567346850394
C          -4.73028697057417   -9.69867118987514   -2.18011741259584
C          -2.74528847594285  -10.75465177559741   -3.16191336986956
N          -2.17685412677200  -11.67590708400541   -3.54711310049405
C          -1.80025751626527   -7.76839896292041   -3.03233322522792
C          -0.64926572703733   -8.51776109997039   -3.43768739980489
C           0.43081868193914   -7.68115581406699   -3.51887541761305
C          -0.02069566636291   -6.33087608851144   -3.20951215748958
C          -1.34891457671013   -6.36634831373468   -2.92464466221974
C          -2.10807513747320   -5.26192402309032   -2.53632928065011
N          -2.68841697110083   -4.33593187834717   -2.17474790619073
C           1.78757335572251   -8.05524790922150   -3.83167479912132
C           2.06479581709630   -9.17415651805594   -4.60099185314589
C           3.36757270744807   -9.54260492991986   -4.91473204795063
C           4.46565871764233   -8.82836292097146   -4.46592199555160
C           4.22541362116616   -7.68938588656070   -3.64456437507001
N           5.26100422716872   -7.00167797790395   -3.12319579995922
C           5.00126158008075   -5.99603579688995   -2.33205082440470
C           3.68200305996359   -5.61260030410637   -2.02789063471643
N           2.65956118207841   -6.25578421554888   -2.52083621765524
C           2.88999990733055   -7.30463534765996   -3.33265850776412
C           5.81553302870612   -9.24677111886112   -4.80387326506291
C           6.92233378379054   -8.36406226038863   -4.94995204092531
C           8.07184065534869   -9.01046412594661   -5.27636092328265
S           9.67363424562502   -8.37567469432319   -5.56977567084883
C           9.42845629610173   -6.62264146600280   -5.16859822614713
S           7.83440693401907  -10.73078592957915   -5.40398112693242
C           6.17116705640098  -10.55072550730749   -5.03293017754090
H           0.99650820821098   -0.21907902618494    0.89147670090688
H          -3.19838241318394    1.42161015814768    2.96137207808693
H           0.02250124485214   -2.43862065972926    0.62163924656471
H          -4.22544632217032   -0.83862362113089    2.68394905597908
H          -3.61997856408026   -6.65492549626151    0.36692053721547
H          -5.98134461343799   -5.50688601337290    1.91834908759190
H          -7.26205909718464   -8.57382099647258   -1.67462548526203
H          -4.15679945023575   -6.42376927391579   -2.09609614171830
H          -5.32839552324800  -10.57495575206320   -2.01179382971384
H          -0.64927570784891   -9.58015667823768   -3.57909186321312
H           0.60942504924735   -5.46295328718223   -3.21336335454164
H           1.24692489451678   -9.76033272599616   -4.99136434909340
H           3.52517915922751  -10.40355011966953   -5.54624000411074
H           5.85310329349912   -5.47039244251627   -1.92112254036962
H           3.45772767499694   -4.78258677327973   -1.37327374627220
H           6.83167564284380   -7.30443156950510   -4.81828338369206
H          10.40396914856342   -6.15593895941540   -5.26034483512656
H           9.06227932752749   -6.53237217003790   -4.15081599536536
H           8.73509148071237   -6.17805653576232   -5.87598874997508
H           5.55886230029364  -11.42713655680626   -4.96038476785640
