114
 SCF done       -224.156087122340          0.000490111993
C         -13.38333302305894   -9.67270957113536   -3.56297990142964
C         -14.04900706652700   -9.10762920197783   -4.61424956385754
F         -15.28584952223413   -9.51190668545996   -4.92169474389570
C         -13.44300678813943   -8.09572130100570   -5.38842546042155
F         -14.11581002339807   -7.56427266549205   -6.41321577832175
C         -12.17900338135420   -7.66378374958735   -5.09820566104671
C         -11.46615988279765   -8.22882540834328   -4.02248685894043
C         -12.07749547757989   -9.25135876043810   -3.23883286334462
C         -11.38112665194866   -9.83544962851851   -2.15699407478129
C         -10.11411860593526   -9.40401352545675   -1.85854430058079
C          -9.51722619971889   -8.37425867474374   -2.63780612235336
C         -10.15889141574068   -7.80463902824106   -3.70064546347548
C          -8.19176893683390   -8.04750907835116   -2.08835230224837
O          -7.37505038892211   -7.29143851313737   -2.56871112910256
C          -8.05809346557276   -8.86807634239112   -0.85146989428164
C          -9.17730220101612   -9.80521475436944   -0.81497442035614
C          -9.32507447819908  -10.87768436227578    0.01772285931564
C          -8.37917644844927  -11.29836558030300    0.97848025762996
N          -7.65055266621377  -11.70614232420433    1.76584665870900
C         -10.43918978169642  -11.74625492674480   -0.00740154913893
N         -11.31623682394676  -12.48528115521251    0.01573608598600
C          -7.09906852015565   -8.72217908732434    0.08885720952168
C          -6.10990736269555   -7.67115818194269    0.13758765435842
C          -4.81367633520823   -7.89340661854084    0.51865378070917
S          -3.84916188234552   -6.48164822164546    0.45369071957258
C          -5.18778699956650   -5.54424763886468   -0.05170372559640
C          -6.32440719656566   -6.28775017932085   -0.17910968721732
C          -7.63400455083868   -5.72629494567193   -0.52671679384970
O          -8.70461845813721   -6.16611644604817   -0.18666803568282
O          -7.50381301463447   -4.61334969159358   -1.29135018222242
C          -8.62834368169204   -4.11945906548441   -1.86587170695901
C          -8.57569087961852   -2.99590298119356   -2.59723298250050
C          -9.63107146728191   -2.35906374616003   -3.31275210014836
N         -10.85055379090461   -2.86135654068065   -3.68900992442449
C         -11.38668859783786   -4.18626866045026   -3.49162678368501
C         -12.18927400645195   -4.29884373603063   -2.19772444838089
C         -11.60332562998154   -1.91051616101311   -4.41930924414909
O         -12.70367288169792   -2.14834866517767   -4.87094944096031
C         -10.75636797069550   -0.74203637158087   -4.47609373798886
C          -9.55541404812084   -1.05724537684060   -3.80119887289400
C          -8.68469970475558    0.09811122363331   -3.85438483296190
O          -7.57121394540673    0.29869716548110   -3.42225965663234
N          -9.43460300987960    1.05332157135527   -4.56773002030576
C          -8.87629433747856    2.34387433154243   -4.89235190368520
C          -8.37491689483155    2.39924347217800   -6.33346633327902
C         -10.66621800184012    0.57152252342994   -4.94991831015123
C         -11.61706238953911    1.32455823474205   -5.66988991444510
C         -12.81652366945072    0.81071397218489   -6.07247962159083
C         -13.79083764083135    1.52842180855729   -6.79887854484132
C         -14.98703843632951    1.01336120281041   -7.26458429524089
C         -15.69404750825257    2.02291047608521   -7.96870600383744
C         -14.85303346830137    3.23661879666971   -7.89499502068467
C         -13.72782210194949    2.93019726079041   -7.20307211234274
C         -15.14555797578889    4.50277293964823   -8.41572445148990
N         -15.34459436428748    5.56117385728336   -8.81487514796354
C         -16.89863093945355    1.91108687605043   -8.62743131496179
C         -17.55687446842671    2.90801735746407   -9.40599662926182
C         -18.67151709708657    2.35585154375652   -9.99800175604895
C         -18.78299870562637    0.97805971139242   -9.53997364611181
C         -17.74047050876122    0.70857886969328   -8.71055551730772
C         -17.54767865500598   -0.50632716447178   -8.04245452706840
N         -17.43363645942611   -1.51390408258069   -7.50360287933476
C         -19.57765333148831    3.02426865180940  -10.86213799109422
C         -20.40710873014728    2.46926933094880  -11.78657122587305
C         -21.58502236939210    3.22724929634543  -12.29496538300794
O         -21.80469701170266    4.40636633046894  -12.15210130516192
C         -22.44009305176310    2.21395625007629  -12.94795328197628
C         -23.69127159571098    2.35950523820887  -13.47413769392672
C         -24.33638149759411    1.23387339050858  -14.03373953663168
C         -23.67168168325269   -0.02712856424768  -14.03129692974102
C         -24.32411608873629   -1.14705271657494  -14.58495707927222
C         -25.57568617205859   -1.02045315105105  -15.11894509774087
C         -26.23148504805542    0.22736983729534  -15.12237566335459
C         -25.62605314847632    1.33171494791465  -14.59159340446825
F         -27.45832931833858    0.32147817509010  -15.65162324639952
F         -26.19365994531190   -2.08493142727335  -15.64600808818423
C         -22.37333734920129   -0.14678235648709  -13.48509031649473
C         -21.76384628569056    0.95992668757905  -12.95733320368096
C         -20.43960787219640    1.14484844362061  -12.37014244498890
C         -19.36042120111098    0.32209318413179  -12.56031707619847
C         -18.03525452696015    0.67876818001878  -12.22987877775342
N         -16.93437148708823    0.95003922237496  -12.05191257906074
C         -19.43736332305810   -0.92721368257492  -13.21002699476326
N         -19.46288973123820   -1.95659197817008  -13.71638318293611
H         -13.86114263939023  -10.44690770394998   -2.98322895862032
H         -11.72911127054458   -6.89174413207753   -5.70253711382542
H         -11.87182387996763  -10.60628898389868   -1.58510466324783
H          -9.67177995960396   -7.04182697470394   -4.28984637765930
H          -7.04313066982436   -9.43392273417887    0.90244751370843
H          -4.37308923032818   -8.83256691363617    0.79054779180258
H          -5.08264916026461   -4.48914526671402   -0.20841615538077
H          -9.52065977394651   -4.69769394755169   -1.66518460342380
H          -7.63415605716201   -2.46461849932805   -2.64853803695601
H         -10.56911935016991   -4.90910115813964   -3.51789638096114
H         -12.05828180077475   -4.37164270264087   -4.33616513076764
H         -11.59391953433823   -4.01311478971300   -1.33368870799821
H         -12.53057965592413   -5.32236585687087   -2.06590064310289
H         -13.05688864042800   -3.64609746842039   -2.24798485539230
H          -8.03669449109619    2.48907896254659   -4.20686666564104
H          -9.61987606148635    3.12387483697589   -4.70583087596533
H          -7.60101492808767    1.65092353422022   -6.48500141653270
H          -7.95442752870428    3.37949358645440   -6.53957623900494
H          -9.18176180268592    2.20826236879435   -7.03777303495956
H         -11.36442554641039    2.34751987770903   -5.90717314391016
H         -13.05492583457620   -0.21891192727332   -5.83981836405315
H         -15.32227861265073    0.00357579098762   -7.13032293360042
H         -12.92627840537834    3.61022532407359   -6.98247065092853
H         -17.19781642628746    3.90660035791429   -9.56029226906202
H         -19.59370051263282    0.31163042405827   -9.77199333073120
H         -19.66827132266989    4.09813920263675  -10.73234312574819
H         -24.18244019881395    3.32057613004523  -13.46403199358068
H         -23.83492693315479   -2.10854600370395  -14.59349911642610
H         -26.14130686249403    2.27939990114859  -14.60182346931945
H         -21.89553135528512   -1.11362291986563  -13.48913157793886
