119
 SCF done       -238.002352685258          0.000987237966
C         -15.14602665820605   -8.09031702617989   -1.71362070878260
C         -16.30014189938527   -7.55228193174590   -1.21830775523236
F         -17.48839325957067   -8.02092805347503   -1.61994544620826
C         -16.25751192631484   -6.49999583031129   -0.28064641127132
F         -17.40529248483791   -5.99217598384482    0.18687028899251
C         -15.06016452782270   -6.00076071327607    0.14860662967864
C         -13.85262802638275   -6.53470541782433   -0.34259604190454
C         -13.89394703766959   -7.59936249235382   -1.28994277036156
C         -12.69559352826976   -8.15534445279178   -1.79039034397968
C         -11.49121698006467   -7.66456619554802   -1.35483077028396
C         -11.45974978665526   -6.59432770046909   -0.41668404671337
C         -12.60197186879279   -6.03714983435105    0.08339728172321
C         -10.06050165265064   -6.23390587287003   -0.11840149161019
O          -9.68371532002100   -5.37371516889875    0.64462002790082
C          -9.23108500573462   -7.11100348527561   -0.99373909149319
C         -10.12154862692984   -8.05526191266448   -1.66294666604715
C          -9.73762666408222   -9.16784726998472   -2.35403568724658
C         -10.64353625141151  -10.05964553851442   -2.97063977710092
N         -11.33466824049833  -10.80729475328726   -3.49951907031717
C          -8.40857010175815   -9.62515225997113   -2.49696288504452
N          -7.37814589007115  -10.11496821391567   -2.62075896812260
C          -7.91649999299532   -6.95035391921732   -1.21895538417906
C          -7.05081336637562   -6.03220547548174   -0.41811962550914
C          -5.95902904328315   -5.42858949099091   -1.23453199847298
N          -6.20175447249628   -4.68312483675728   -2.29048174701880
S          -4.79886200526758   -4.19499023466095   -2.93275434386318
N          -3.83140913419107   -4.91169867690005   -1.84779074223352
C          -4.57260825499547   -5.55849372633974   -0.97339137485360
C          -3.96771923743551   -6.37174620760472    0.12965639149375
C          -5.06620815139303   -6.98127671306338    0.94845118635001
C          -6.45303712052419   -6.84854236551764    0.68687121491263
N          -7.19084788883876   -7.52752577660697    1.53860923358505
S          -6.23408733988051   -8.27453634562138    2.60693706958062
N          -4.82807797592390   -7.74307763742745    1.99533564959259
C          -3.14546933163573   -7.46731309357323   -0.47784207642320
N          -1.93657679632259   -7.88793067148965   -0.01597146896408
C          -1.18453647308111   -7.38002360725288    1.10537988033928
C          -1.60571661025700   -8.03052148263710    2.41974161972692
C          -1.42341087072842   -8.95402113236652   -0.80895262540618
O          -0.35506462909635   -9.48399104344273   -0.59279741285393
C          -2.43243024116526   -9.15484024621965   -1.81649609358768
C          -3.47909402744914   -8.21661737095307   -1.58327834062583
C          -4.44832058345438   -8.37746629537557   -2.64220247276485
O          -5.49619651283440   -7.80329705447647   -2.87226198680779
N          -3.92513309283161   -9.39606962929708   -3.45367673535901
C          -4.69959477957073   -9.89233729364668   -4.56841411119794
C          -4.49322043442207   -9.05217920577583   -5.82545838760065
C          -2.72061802025744   -9.85873472958378   -2.97809866293670
C          -1.86098132289005  -10.84765632447729   -3.53035085622179
C          -1.80303906012880  -11.29330570902551   -4.80739559064289
C          -0.85929381561339  -12.25348348083410   -5.25355348829043
S           0.12875582969025  -13.15056734853244   -4.13654589731926
C          -0.58696971840042  -12.61500991604383   -6.56945959551840
C          -1.25379517261540  -12.02608224203388   -7.74823453286015
O          -2.11095696919603  -11.15953602363823   -7.68650274898270
C          -0.76155683616679  -12.58198417768926   -8.99700003579582
C          -1.13880569900199  -12.28546854416657  -10.28942483841231
N          -0.39841179488481  -13.03377504985124  -11.14001704246642
C          -0.54274354193830  -13.05670890125618  -12.57404020408182
C          -1.48456996595433  -14.17632357021293  -13.01200597663200
C           0.44538146046822  -13.82145088430586  -10.43294092083298
C           0.25907001176302  -13.57302147633999   -9.09033213403027
C           0.91334912039758  -14.17048426870056   -7.94051816320302
O           1.76644558892470  -15.03709601770247   -8.00433298673676
C           0.42809464219825  -13.59928935543629   -6.66734155336335
C           0.90807240755836  -14.01040219911834   -5.43356398875867
C           1.95016835676151  -14.94565265089844   -5.18466300431376
C           2.08154114983573  -15.76443619670650   -4.11121160456682
C           3.41071978842910  -16.34277821982186   -3.75884137825201
O           4.39986774740238  -16.36820797544774   -4.44930347304580
C           3.26602835189398  -16.80474518118092   -2.36131066062314
C           4.22105586515713  -17.29668577226597   -1.51885700631759
C           3.85792895314252  -17.64900392140848   -0.19954716041941
C           2.50818920611380  -17.47636061067097    0.22529566810482
C           2.15567420022420  -17.82037558047991    1.54600389313344
C           3.09723359066801  -18.31605731793166    2.40316005039762
C           4.43107501062677  -18.48887816638636    1.98147033032090
C           4.80480775187649  -18.16295611950343    0.70799262093275
F           5.33321710137826  -18.97644695770061    2.84402360430066
F           2.76039183626604  -18.64372840376157    3.65763997157497
C           1.53916034336327  -16.97132564504944   -0.67078653183608
C           1.91202351340471  -16.64820262854461   -1.94808908179874
C           1.13737016734618  -16.14898424454171   -3.07933899113771
C          -0.21760494823439  -16.27282838319604   -3.22860730403456
C          -0.90076774020702  -16.01799145180435   -4.43685516817452
N          -1.48798704511031  -15.86943077146280   -5.41168598927143
C          -1.07421999387908  -16.75585288441503   -2.21773782996561
N          -1.81110693060997  -17.13141806896363   -1.42226136592202
H         -15.19691518486338   -8.89644597081410   -2.42875250526800
H         -15.04393597992401   -5.19553385299604    0.86628150248065
H         -12.75866012589341   -8.95511110033851   -2.51065537100139
H         -12.54976359577044   -5.22878320343664    0.79681181081620
H          -7.39605976873674   -7.51714662042417   -1.98034864170549
H          -7.67692519406919   -5.24651524472813    0.02734662981290
H          -3.33582651613213   -5.74174797287795    0.76575266202869
H          -1.29578453974995   -6.29350306438106    1.15564931685703
H          -0.13692549219443   -7.61683789300140    0.89675089083825
H          -2.66663997204093   -7.87520300519749    2.60055526310738
H          -1.03441034300596   -7.60388670398593    3.23944282865231
H          -1.41217249613312   -9.09931409505778    2.37929990897796
H          -5.74935494022741   -9.83316658482076   -4.26289299395468
H          -4.44374627345424  -10.93864501740941   -4.74049125908901
H          -4.79470626085512   -8.02517113580270   -5.63375672694997
H          -5.10142393471110   -9.45074749627826   -6.63229674772413
H          -3.45390931898375   -9.05697392510734   -6.14514713090616
H          -1.12127001917831  -11.20507837674642   -2.82162420764689
H          -2.43734727883824  -10.89878886837457   -5.58691874138301
H          -1.87739398578126  -11.59017336004429  -10.63621268824543
H           0.44403687765961  -13.20220811762147  -13.02185232674948
H          -0.93428016405871  -12.08915360937274  -12.89742658899596
H          -1.09844009392355  -15.14200383662791  -12.69512914858987
H          -1.58203583897860  -14.17724522946354  -14.09380750974639
H          -2.46907296712916  -14.03699813431600  -12.57206748823639
H           1.12759955810482  -14.49837125461168  -10.90764591495597
H           2.75257753945461  -14.97150076545525   -5.91652866465910
H           5.24031348885363  -17.41489798003187   -1.85370253119270
H           1.13837630180391  -17.69734778383831    1.88328814694564
H           5.82977506783899  -18.30070191798976    0.40116381409472
H           0.52674213316828  -16.84085087026072   -0.32305757256419
