116
 SCF done       -231.216556882550          0.000543802237
C         -11.67786894885135   -5.20351025459254   -6.37085983964549
C         -12.55321200186568   -6.12336244389074   -6.87730840463084
F         -13.32670986633969   -5.81098993639791   -7.92306755198008
C         -12.65313127306387   -7.40910700318443   -6.30700702167699
F         -13.51844156196884   -8.28899342522997   -6.82425696069794
C         -11.87642517117841   -7.75643006104577   -5.23700882512400
C         -10.96564916284313   -6.83047606038633   -4.69217333727650
C         -10.86261607783192   -5.53050105663386   -5.26873222684891
C          -9.95304828426726   -4.58490000288923   -4.74133398996480
C          -9.16987515713736   -4.92813656598674   -3.67054473338832
C          -9.28232821175494   -6.23015239291801   -3.09997888001567
C         -10.15197077078101   -7.16350321246000   -3.58654655638460
C          -8.34044825450962   -6.33781656229509   -1.97820543950638
O          -8.18906573388650   -7.26332267346008   -1.20522266532006
C          -7.61313841723155   -5.06452379288608   -1.92556781100977
C          -8.15344524556367   -4.17638764045405   -2.93620742720920
C          -7.79368672291171   -2.87480872106705   -3.16928691087833
C          -6.81506229135785   -2.17138173514081   -2.43674023274705
N          -6.03035614904982   -1.55188309036539   -1.87131752643979
C          -8.36830541598755   -2.06091510942011   -4.16914881099523
N          -8.79792601185642   -1.35084459832906   -4.96130087887253
C          -6.59268863559256   -4.83068667731298   -1.05086017028229
C          -5.96767941630242   -5.72664690696691   -0.16669896235424
C          -4.91985760384948   -5.36707064467578    0.64453295481632
C          -4.58243820534088   -3.93486902980410    0.91928623595475
C          -5.64926668895564   -3.31064211284984    1.82808057319560
C          -4.16000040978186   -6.43667033653159    1.25611434052976
C          -2.93297511058817   -6.21605464731639    2.10027949607552
C          -3.27040710806484   -5.72443196597845    3.50892922737969
C          -4.59470911474528   -7.66235350277188    0.93152435794081
S          -6.17786719125173   -7.55129721890776   -0.06040452838568
O          -7.09992656475889   -8.05132323975042    0.90938150838387
O          -5.89518767767253   -8.23693786625707   -1.29097191841444
C          -4.32946229341844   -9.01219685375301    1.24877616222466
C          -4.84931011211089   -9.68487874662279    2.33303951876302
N          -5.47602565146299   -9.10866926412743    3.44948028092225
O          -5.94089946710585   -9.86347833854656    4.28242989425665
O          -5.49575885368887   -7.89126116757398    3.53644563892770
C          -4.74533633103651  -11.11009118964062    2.11432217174192
C          -4.19134156456595  -11.32116303802798    0.90116270301573
C          -3.88449707964134  -10.04956940976807    0.28791249385103
C          -3.35408926946326   -9.77493056000797   -0.94366074556267
C          -3.13707506553353   -8.45025901150009   -1.48212343524879
C          -2.98765577698169   -8.53583726527320   -2.82018340644943
C          -3.03655146782046   -9.92919839654299   -3.19666033043758
N          -2.89630957218557  -10.35416097385250   -4.53058721068776
O          -2.85380218303522  -11.55107904818951   -4.76509178171924
O          -2.83381485622627   -9.48812303608163   -5.38605611422877
C          -3.16598938394722  -10.71891831955502   -2.06863808818172
C          -3.12647376709984  -12.14176615444023   -2.06121835530462
C          -2.47301683531104  -12.90236991210899   -1.15248915326162
C          -2.40656251792181  -14.33422236157356   -1.17322559399525
C          -1.48012759794266  -14.99975010826802   -0.37003262263424
N          -1.26488780206325  -16.30068376605175   -0.37497564185929
C          -1.97241470487228  -17.10407058567372   -1.15866697056537
C          -3.02403496948843  -16.57505980503224   -1.97570445062878
C          -3.23331134933526  -15.16704719030568   -1.98664057831781
N          -4.21926265360597  -14.63831628516137   -2.73449468195654
C          -4.93235200343554  -15.43922197930366   -3.47640948593775
C          -4.72720420345602  -16.83192376520396   -3.46186717452775
N          -3.80975147878190  -17.37948450060974   -2.71234955137230
C          -1.55640732689396  -18.47726899440716   -1.14090082102868
C          -2.11434644296773  -19.49711168308709   -1.82974654684174
C          -1.63636786762037  -20.83818727767772   -1.81140500395559
C          -0.36520940713466  -21.30145615283845   -1.69446514390607
C          -0.15404749770544  -22.74267638361502   -1.36589055595592
O          -0.98822556816522  -23.61595018705007   -1.39540432011743
C           1.25833114128494  -22.84513737975308   -0.95387662397364
C           1.92686731756869  -23.92335197646166   -0.44887107571966
C           3.28775501464912  -23.78426499596377   -0.09775539629113
C           3.92686681678170  -22.52127138463937   -0.26624872015056
C           5.28325729797944  -22.38659344818295    0.09298010212458
C           5.97319850265199  -23.45591735139869    0.59082090800144
C           5.34053296319582  -24.70522636886695    0.75481213318496
C           4.02588976401892  -24.86726814721667    0.41861856909139
F           6.04167753919274  -25.73512460649085    1.24562622413195
F           7.26199083009831  -23.32702328802829    0.92930131294871
C           3.20957723118654  -21.42386046302034   -0.79419278050028
C           1.89544733230146  -21.58582606793954   -1.14544329683542
C           0.93571867981787  -20.65991150587278   -1.74517317780606
C           1.27272534166688  -19.52197142671039   -2.42698402414723
C           0.38083146238071  -18.74667609988230   -3.19652879890390
N          -0.27336181333060  -18.09201378247468   -3.87484406690419
C           2.59016524513948  -19.02201703981960   -2.51005646837365
N           3.64025688746731  -18.56829124094191   -2.59909339937798
H         -11.61430814682617   -4.22472247861698   -6.82012531628325
H         -11.96406401179750   -8.74388242067698   -4.81175674212552
H          -9.89798299355658   -3.61207058183760   -5.20262621668992
H         -10.21269169361060   -8.14138669479907   -3.13431409384083
H          -6.15050351535993   -3.84198368034728   -1.07079080351497
H          -4.53225179374428   -3.36328460683505   -0.01028628182579
H          -3.61197013204011   -3.86248019863952    1.40399230068802
H          -6.61416127199322   -3.28690275457214    1.32918503725471
H          -5.36358701912938   -2.29319837691870    2.08117049150533
H          -5.75398769518615   -3.88722866019531    2.74344716065679
H          -2.26231241766294   -5.51087988147703    1.60269273748965
H          -2.41167965525002   -7.17181168334967    2.17910175644311
H          -3.62156454609583   -4.69755989318167    3.50432890593154
H          -2.38459505063762   -5.78107300845990    4.13634743367111
H          -4.04664264704178   -6.35154135531255    3.93779596956350
H          -5.08675357675238  -11.83873043132131    2.82470737137146
H          -4.00838510777789  -12.27419743925970    0.44989229081592
H          -3.13597240756553   -7.55383670569366   -0.89691408713185
H          -2.84033691434272   -7.74059469818300   -3.52557734953723
H          -3.56672431227389  -12.63612814507114   -2.91944054634598
H          -1.87583301886590  -12.42429281084079   -0.38380335270814
H          -0.84739764546210  -14.43673972432485    0.30520531237463
H          -5.70570841713485  -14.98347415109249   -4.07890449970132
H          -5.33977889279061  -17.50211241428858   -4.04901436656522
H          -0.71377971556164  -18.65827228291074   -0.48422732043752
H          -3.02040398368094  -19.30875812730325   -2.38976334842425
H          -2.39271474992698  -21.61630267137209   -1.87417229072743
H           1.42382406401241  -24.86957541733516   -0.32028808052546
H           5.78379335690983  -21.43892757524547   -0.03017773421824
H           3.55612666771257  -25.82939590624414    0.55003452515801
H           3.71672706937143  -20.47850645039818   -0.90112846546225
