138
 SCF done       -277.454670820454          0.000570473876
C          -2.45947879889672   -4.49583385470200    4.12380824110713
C          -1.31641966437500   -5.21923636397634    3.92723960318575
F          -0.14580127381820   -4.76525459051578    4.38574145724481
C          -1.35584923911216   -6.45139221068027    3.24162542515089
F          -0.22201922163756   -7.13830985032164    3.06522361850756
C          -2.53800766957290   -6.94237309298149    2.76227201904172
C          -3.73332287079309   -6.22112438562516    2.95027486964838
C          -3.69468213950897   -4.97597629108166    3.64434240723727
C          -4.88220303275493   -4.23821072474252    3.85000046703174
C          -6.07119123952075   -4.73261082184455    3.38144718294862
C          -6.10135175746395   -5.97402436333651    2.68247007977179
C          -4.96779282171212   -6.70589629032462    2.46568509876325
C          -7.47989935605650   -6.27420558861158    2.26466326971232
O          -7.86219687270707   -7.22003656231309    1.60990520291572
C          -8.29602604579007   -5.12262834719721    2.74321932500924
C          -7.42969812053475   -4.21384327808294    3.47191390969212
C          -7.84126648699678   -3.13439241997814    4.20434977604090
C          -9.19625377929554   -2.77876708984136    4.38183324632842
N         -10.28409861712306   -2.48433312270492    4.59765643575091
C          -6.97030248146340   -2.28820962399741    4.92395869222960
N          -6.30373732523723   -1.56856884045496    5.51845432135909
C          -9.58801479172690   -4.92198295525061    2.37833312675551
C         -10.41098265495434   -5.91417153906553    1.77257972249769
C         -11.19335456947653   -5.76702959476202    0.63991991415058
N         -11.33473846823602   -4.58475389195837   -0.10306514698246
O         -10.64529730291250   -3.62699927973316    0.20341614440649
O         -12.15242698130491   -4.57634332647546   -1.01224342918390
C         -11.80068143774904   -7.02771638493617    0.30439383576183
C         -11.37111221752923   -7.95729234189661    1.19127231206955
C         -10.52065051569677   -7.32117083269825    2.16816538401432
C         -10.08769629412956   -7.85216882474517    3.36205532634367
C          -9.89662152352557   -7.13803146455366    4.58706973051657
C          -9.76606004755436   -8.03351341977615    5.60194588982111
C          -9.78235816130818   -9.36499396751799    5.05621202493397
N          -9.56069907869397  -10.50685569197133    5.83948432146105
O          -9.41677786166977  -10.34821283778504    7.03815193357015
O          -9.51552701158552  -11.59955669232073    5.28731229086796
C          -9.94214399249974   -9.29189805401379    3.67837513198545
C          -9.85911021622673  -10.37384666125337    2.77448907825526
C          -9.48101761566211  -10.27429455056261    1.47550034670624
N          -9.38843843954915  -11.32014520289558    0.60506914814086
C          -9.47466401040457  -11.07513856138119   -0.76991378102902
O          -9.50161261155854   -9.97541222747035   -1.25651405912290
C          -9.63255728204556  -12.41204577915302   -1.47512041176427
C          -9.46269745743368  -13.39044237283048   -0.36029325195548
C          -9.32968377386194  -12.70252983919067    0.85107881671530
C          -9.08816604840129  -13.38776442573654    2.02995910487211
C          -9.04138763440053  -14.77858918308255    1.99901495069106
C          -9.21789062620527  -15.45420746979970    0.79391616948040
C          -9.41417028701562  -14.76734549760511   -0.39381980356238
C          -8.78608192892871  -15.54320033402659    3.25872937033258
C         -11.04767039134104  -12.44497350205240   -2.10504767172142
C         -11.07681297235590  -11.57640168147162   -3.35876274049884
O         -10.47053374404499  -11.77392075863859   -4.37876336221304
N         -11.93191720310977  -10.51306164646803   -3.12110346296112
C         -12.55123277366159  -10.65491346119388   -1.87013266060465
C         -12.06776750955163  -11.79501717335457   -1.22647765333932
C         -12.50554932254817  -12.10940474039051    0.04203214472344
C         -13.42442725916304  -11.26861815199088    0.65431733153209
C         -13.90161934235039  -10.12542454076138    0.01912776908279
C         -14.90316293413622   -9.24052406579879    0.69070785624124
C         -13.46121773606840   -9.81404067927068   -1.26339210718735
C         -12.37765211555735   -9.62975798521441   -4.08871043955034
C         -13.68875338527330   -9.49428650327650   -4.48580081904575
N         -14.77858271611059  -10.31593263265441   -4.12698044238962
O         -14.54442626515352  -11.33441406805552   -3.49547329368613
O         -15.88632844124682   -9.96420747699078   -4.48335348010358
C         -13.79427921310765   -8.42016778955774   -5.45147761256508
C         -12.57969501167329   -7.85209844335419   -5.59074366120574
C         -11.62877699280217   -8.53097313589830   -4.73282532567095
C         -10.33510727660011   -8.13420332208118   -4.50484544040421
C          -9.23934487363301   -8.95834518171869   -4.07754746679314
C          -8.07978329864235   -8.29155348230651   -4.28645591163583
C          -8.38279845044145   -6.96759543276929   -4.76683171270825
N          -7.36287728224829   -6.01903271828883   -5.00169836990822
O          -7.67034468870627   -4.88794584259912   -5.33561062930777
O          -6.21576959019710   -6.40061576669708   -4.85947084464981
C          -9.75711867207452   -6.81083730337181   -4.86975547081958
C         -10.39960283720099   -5.57720909318914   -5.14971800193121
C         -11.60514334622711   -5.10782958343606   -4.72121045059486
C         -12.48212459419235   -5.71897817955919   -3.79088763925733
C         -13.72107445937803   -5.26253662081040   -3.46220961563789
C         -14.38856089555630   -5.71262722076237   -2.21668837034776
O         -14.19132246019242   -6.75290322813645   -1.62683176821394
C         -15.32777715277370   -4.63500427271641   -1.87136118267898
C         -16.05431403281654   -4.45470232524889   -0.72944166888574
C         -16.86798562929796   -3.30636297890684   -0.60762347992728
C         -16.91544192965933   -2.36380810733259   -1.67628299728961
C         -17.72564038292438   -1.21846132783146   -1.54464749510938
C         -18.45575683043149   -1.01776446957303   -0.40664148999811
C         -18.40815374215284   -1.95036126947421    0.64965428634696
C         -17.63154398659498   -3.07085654217778    0.55235106546439
F         -19.13301845945521   -1.72879221428218    1.75290976173352
F         -19.22561913489311    0.06940129623811   -0.28376532710949
C         -16.15821156460462   -2.57995821953202   -2.85046354915964
C         -15.37815170925940   -3.70034421014837   -2.94659239391243
C         -14.51274415939151   -4.18321685319401   -4.01826126628945
C         -14.58216354782680   -3.81845568174898   -5.33461194579203
C         -13.91685059472523   -4.51759510242811   -6.36474162519931
N         -13.43465128337603   -5.09883079149040   -7.22848309334784
C         -15.41799522953630   -2.78788370149113   -5.81592887621385
N         -16.07074398719823   -1.94831009036343   -6.24557890066369
H          -2.41175002707443   -3.55583256922780    4.65104438398797
H          -2.55031065479072   -7.88537557607296    2.23864652214977
H          -4.82201098815055   -3.29608827344202    4.37074053322019
H          -5.01365946209364   -7.64326055278123    1.93243162419660
H         -10.02837861652075   -3.93576945325615    2.47833911324855
H         -12.49029537221320   -7.16362137022592   -0.50590267547518
H         -11.70135889993163   -8.97592018025600    1.24670740214457
H          -9.97865476783109   -6.07351045452319    4.69155581021652
H          -9.66390375540188   -7.82544565860772    6.65049407461266
H         -10.04950312451778  -11.34133683222205    3.21135458243453
H          -9.23144864442102   -9.32107777042559    1.02466595203363
H          -8.89396103989805  -12.54168443966969   -2.27219458699087
H          -8.90992186222946  -12.88853104721700    2.96741167179438
H          -9.18507277257301  -16.53296727641789    0.78620817742889
H          -9.52075881834173  -15.29873497450603   -1.32684638165233
H          -7.79538192972244  -15.99585944425177    3.22686056410105
H          -9.51214498175268  -16.34593643158245    3.37159014431443
H          -8.84095026337067  -14.89255297645453    4.12702527749295
H         -11.29261188042446  -13.47534840197190   -2.37471057961732
H         -12.15055564723026  -12.99517932217614    0.54720387679718
H         -13.78280806357005  -11.50923590206869    1.64424283441575
H         -14.70496690409463   -9.16259055909835    1.75747791365539
H         -15.90157029031728   -9.65877276638137    0.56396149959706
H         -14.89121010869885   -8.24987159575916    0.24572963422282
H         -13.83186064289363   -8.92969420703833   -1.75557253722769
H         -14.70209205546237   -8.18146423135289   -5.97082334502914
H         -12.31762322526141   -7.08348530824042   -6.29031505394602
H          -9.32069087146961   -9.97610403501846   -3.77065657668824
H          -7.07924807254854   -8.64860978374566   -4.13280320656920
H          -9.78753369419277   -4.88406000978811   -5.71559080117737
H         -11.87886642118617   -4.11768512001427   -5.05974132969356
H         -12.10874398951769   -6.54611317561411   -3.20025441629054
H         -16.00685989529760   -5.17265284226078    0.07532802143839
H         -17.77509197907832   -0.49573798365699   -2.34400671081067
H         -17.60650962215263   -3.77379306851910    1.37027799797195
H         -16.20256958817024   -1.84631721423570   -3.63972674719982
