124
 SCF done       -245.543561813611          0.000667756776
C          -3.96730210704110    3.05936325651495    1.97847982835545
C          -2.78548675620492    3.69491487763917    2.23580912754281
F          -2.78229263444314    4.90201629421347    2.81600319982898
C          -1.55710844438483    3.09230844098690    1.89514490118901
F          -0.41481633605760    3.74009613877792    2.15904692840804
C          -1.52837058568538    1.86217160806795    1.30067920760402
C          -2.72964432427517    1.18189495973055    1.02047379322284
C          -3.97254051895963    1.78954128165895    1.36555438021729
C          -5.18994289259017    1.12600208622736    1.09484207595998
C          -5.16533456024438   -0.10763426788332    0.49686346953351
C          -3.91888749567693   -0.70697293678908    0.15656423616025
C          -2.72767628112244   -0.08823572495094    0.40335468620925
C          -4.16251239894283   -2.01579909068267   -0.47348522263278
O          -3.38039893583487   -2.70240187143224   -1.08641502230212
C          -5.63158151931441   -2.25463810783944   -0.31206152330950
C          -6.24653829311130   -1.00922146848693    0.11567840901405
C          -7.58419914875034   -0.72444981166579    0.13344601159450
C          -8.12560402215404    0.50639064696103    0.56248993710683
N          -8.61929884131107    1.48624057459176    0.89791953707219
C          -8.58445342475042   -1.60844738122744   -0.32473974251988
N          -9.42774297418539   -2.28709289615299   -0.70660524788713
C          -6.20567654222671   -3.46709752226497   -0.46989277579764
C          -5.47106662794595   -4.68243466651578   -0.67978041043594
C          -4.39938911422688   -5.18435332134442    0.03695612427248
N          -3.73760025981949   -4.62495608352247    1.14607982282085
O          -2.86150484420745   -5.29190210293160    1.66383130769030
O          -4.08326961377791   -3.52551796652643    1.55620910147871
C          -4.06819702377799   -6.50027840813557   -0.45726186549153
C          -4.94407970901791   -6.82782252541008   -1.43454414345759
C          -5.86629763925947   -5.73294111455497   -1.61987142173738
C          -6.84977052265537   -5.61137110376355   -2.57957652698241
C          -7.35150736202296   -4.38499284011946   -3.11285686728802
C          -8.09012114207995   -4.65187704069060   -4.22699147188822
C          -8.14879522542796   -6.06865596899348   -4.41427146267523
N          -8.90332884645565   -6.67064811674495   -5.42530535451714
O          -9.07715935712200   -7.88267424273977   -5.40130091915604
O          -9.37057184688632   -5.94712014056064   -6.29245704361864
C          -7.42792174114365   -6.70092285210225   -3.39620913786493
C          -7.37285199587830   -8.08430165884683   -3.17368808158044
C          -7.19699066013434   -8.69500326847821   -1.95861272411828
C          -7.19375794477387  -10.09494823677405   -1.83380604789548
N          -7.18716808085141  -10.77608819097651   -0.64348973906907
C          -7.13549812855732  -10.20169806116201    0.68076156350462
C          -8.51550697552681   -9.76379811078481    1.16210826142615
C          -7.30857355922763  -12.17092553307352   -0.82376296231983
O          -7.27504312632056  -12.97599574737866    0.07421673614414
C          -7.39337663370925  -12.32571125949657   -2.26687838696383
C          -7.25694213869019  -11.05938183016103   -2.85696989776048
C          -7.23871643112958  -11.24953798842620   -4.29337064764557
O          -7.09216602827669  -10.47462974856766   -5.21151354644698
N          -7.42224502707492  -12.64314449198572   -4.47571274351848
C          -7.27621499675250  -13.19536816777952   -5.80486219728982
C          -5.95701981113895  -13.94392932963061   -5.96713561728331
C          -7.56260457698457  -13.28602335190544   -3.27434803446963
C          -8.04566603280157  -14.59571542439103   -3.00645511083730
C          -8.33994084862149  -15.56512139682882   -3.89621033700359
C          -8.99541828719152  -16.81318688241271   -3.55756847456482
C          -8.47502187805132  -17.98968668216002   -4.10451507834560
C          -7.33169007093781  -18.16970830798428   -5.02753783983777
O          -6.61920272636918  -17.33598576316770   -5.51481197708352
O          -7.19479385127874  -19.49198251272855   -5.26387824848408
C          -8.15695073026762  -20.25342280041120   -4.55147162259935
C          -8.97190613494362  -19.24992094785182   -3.80236078280511
C         -10.02819222810592  -19.39124795603919   -2.92156026350477
C         -10.57287582764022  -18.23825830568347   -2.38721536709019
C         -10.11050736947812  -16.95016428908534   -2.70236508517365
C         -10.87625337347336  -15.85238585357548   -2.12959321002266
C         -11.18880981138154  -14.65354748798423   -2.66014911104674
C         -10.83591565472793  -14.18677111371739   -3.96178995793778
C         -10.79294706204104  -12.90908758109343   -4.41277935382390
C         -10.64082428814381  -12.67451768201249   -5.88436762138731
O         -10.36397759013219  -13.52755673802208   -6.69866290364982
C         -10.92251489914390  -11.25171374915798   -6.09685220545201
C         -11.02304218861661  -10.54776458543356   -7.26392615678218
C         -11.39444694194158   -9.18651496760422   -7.21489424399416
C         -11.69271571272771   -8.58549231300744   -5.95666261966474
C         -12.11657232117564   -7.24227342965303   -5.92011811458352
C         -12.20457274914478   -6.51472453960100   -7.07403038771579
C         -11.88202539324440   -7.10171907144684   -8.31433758140406
C         -11.49186855619891   -8.41014780514944   -8.38530972588495
F         -11.98341762662354   -6.37137509044095   -9.43064168526971
F         -12.61587485686819   -5.24447112803066   -7.03756408725906
C         -11.54340465874900   -9.32666965797378   -4.76441052064123
C         -11.13495461262982  -10.63177700824008   -4.83217423639012
C         -10.89527718618330  -11.60719848526178   -3.77610517790873
C         -10.63191094948230  -11.26256109231825   -2.47802568005052
C         -10.38930661562437  -12.12713256145567   -1.39169044323454
N         -10.21460627967229  -12.73186994985610   -0.43147058195760
C         -10.48051930012827   -9.92310369038432   -2.05757211668375
N         -10.27416413473261   -8.87313402599626   -1.64081221477684
H          -4.89802760619977    3.53512588536408    2.24551767416741
H          -0.58065574016790    1.41388365870763    1.04668147071586
H          -6.11364603407942    1.60736501105266    1.37388327718894
H          -1.79688379799220   -0.56567030713243    0.13823352915039
H          -7.28190628576179   -3.57589838453159   -0.41127129663445
H          -3.24353532197946   -7.07701868789021   -0.08485766013113
H          -4.91309131852774   -7.70323247269598   -2.05258426955310
H          -7.08746411797238   -3.40993023546385   -2.75387804117580
H          -8.56948576708740   -3.94517633894831   -4.87803056235219
H          -7.58384707679340   -8.70289506597640   -4.03921185956617
H          -7.14344027527450   -8.10055070672069   -1.05853122511566
H          -6.43231362247681   -9.36475118849824    0.68307275842310
H          -6.75285664832423  -10.98897378306041    1.33622250952074
H          -8.95070196539082   -9.02879286416834    0.48856805504345
H          -8.43710787309947   -9.33128224743018    2.15523331239779
H          -9.17851723321038  -10.62454121586090    1.20771250644911
H          -7.29275216651164  -12.33151546352002   -6.47681235098858
H          -8.12655756823407  -13.83254683241307   -6.05348298621692
H          -5.12335849193946  -13.28655541996309   -5.73067269751288
H          -5.85776526947740  -14.27255018786818   -6.99736156481736
H          -5.90548970156241  -14.82051090045643   -5.32694842582937
H          -8.25340537808150  -14.75745972515847   -1.95512042940869
H          -8.01636779042858  -15.50053918696542   -4.92358863127317
H          -7.63349379189303  -20.95276415301907   -3.89029172581893
H          -8.75097961649836  -20.83098178041355   -5.26847084972423
H         -10.41650133254151  -20.36216799188857   -2.65832953838952
H         -11.41080342773281  -18.32489040835128   -1.71123960333491
H         -11.29025572347703  -16.07397561460003   -1.15415037929969
H         -11.78870175798349  -13.98645778620828   -2.05803975192090
H         -10.64385885566845  -14.94082907935570   -4.71969085367697
H         -10.82771745304539  -11.02495136055857   -8.21228036985051
H         -12.34941236908055   -6.77292315743628   -4.97654303003537
H         -11.25163938169656   -8.84255545831383   -9.34409252290929
H         -11.76104446234905   -8.84447129017039   -3.82435020402995
