109
 SCF done       -221.951487911143          0.000935209391
C          -5.10462690757564    3.80432961536027   -1.00511216784310
C          -4.67434796243159    4.86718859612115   -0.26139327136105
F          -4.73858167282260    6.10738844417561   -0.75997572715427
C          -4.15823508851988    4.67333957083770    1.03646792011213
F          -3.74319675676491    5.73315715537379    1.74084260421207
C          -4.07956847644630    3.41840711788883    1.57241431700759
C          -4.51360868504678    2.30274985163638    0.83031472412978
C          -5.03715738985373    2.49740600843652   -0.48133651406960
C          -5.48150038891104    1.39310893143476   -1.24335916073715
C          -5.40738212135865    0.13297636527285   -0.70920276185688
C          -4.87665351234645   -0.05249348774441    0.59840320889739
C          -4.43653879640254    0.99443971871684    1.35658209338447
C          -4.87654702560928   -1.48705476786293    0.93439796676684
O          -4.39119721857261   -2.00241416202850    1.91623564679865
C          -5.46110142514719   -2.17282607707799   -0.25306315455645
C          -5.79470765807979   -1.16730905639882   -1.24543006728207
C          -6.43990078550455   -1.38667710443962   -2.43285845240184
C          -6.76990039743978   -0.36760225029296   -3.35210031390523
N          -7.05912179603990    0.41736148048932   -4.13740122068800
C          -6.88752917806458   -2.64713474935962   -2.88448437782013
N          -7.29514849740951   -3.63447349931545   -3.30396805802110
C          -5.48197927677991   -3.52532592159794   -0.41610806241105
C          -5.31942743625568   -4.45797269320037    0.63823927800674
S          -4.62635384950879   -6.04118159209968    0.36592605539544
C          -4.76873572035160   -6.52871388507292    2.05202362701069
C          -5.38018773374326   -5.49499352201045    2.74098458969618
C          -5.67709664873105   -4.36673727797690    1.96763666217401
O          -6.34466492502176   -3.47880918018366    2.74508402018855
C          -6.42889749151642   -4.02163494788293    3.98643408752579
O          -6.94108096821393   -3.51785306543722    4.92481042808521
O          -5.84710334435928   -5.26082193627685    3.99895258978455
C          -4.27898088749236   -7.80539230810761    2.42488898584025
N          -4.19112617650364   -8.35342269212761    3.67767739926413
C          -4.44465114625314   -7.72184877904687    4.95205833797933
C          -3.33084925812108   -6.74839325061038    5.32583035791472
C          -3.65768993429428   -9.66245319104561    3.63491098047423
O          -3.48877891886770  -10.34295669181812    4.62437270053657
C          -3.41626235120855   -9.91376155811441    2.23155042864433
C          -3.79916145689577   -8.75782747613800    1.52343442630698
C          -3.56461220292573   -8.98588162723714    0.11575474133925
O          -3.73924277538238   -8.26997240904697   -0.84987361793777
N          -3.05693346359051  -10.29026092635294    0.05821328063989
C          -2.65193307760355  -10.88077789518951   -1.19706185835059
C          -1.14307779113312  -10.79156641001816   -1.40761188873620
C          -2.94780272180352  -10.85898619132952    1.30718077385737
C          -2.44465718017196  -12.15378474664044    1.54017620962954
C          -2.36162122680181  -12.70019045248623    2.78974076980007
C          -1.83339320690922  -13.98328837119058    3.05435326247473
C          -1.24009791601150  -14.87848915739746    2.18462315718121
C          -0.82652407141975  -16.03102686421560    2.90536949366164
C          -1.22872940322985  -15.80339731705842    4.30995106588616
C          -1.81660774118472  -14.58422735517210    4.38540705238084
C          -1.05355233239941  -16.68681499087430    5.38226716471446
N          -0.93539896739999  -17.39634160024566    6.27726695614397
C          -0.14169352136694  -17.11779455411210    2.41126600784949
C           0.36063303958116  -18.23697030226133    3.13965674630483
C           1.12402569934378  -19.01439529931944    2.29908255702908
C           1.05932324144171  -18.43124030351736    0.96614499571291
C           0.29068340325734  -17.31148036547071    1.01764131997367
C          -0.02705067454001  -16.50513714254518   -0.08028078556026
N          -0.28186794182315  -15.86287732668295   -0.99839518072892
C           1.83244013386859  -20.19471731468239    2.65345896908648
C           2.94489968363717  -20.69938863027425    2.05804462192182
C           3.32828541235046  -22.12686804050596    2.25924775366720
O           2.87620531580989  -22.88733359429347    3.08076377810897
C           4.32307925128883  -22.40908780880193    1.20424682413478
C           4.91290270387925  -23.59684404952386    0.87956105892565
C           5.83855544261852  -23.63548316920394   -0.18710378477138
C           6.12978198050621  -22.43866654403285   -0.90483090482990
C           7.05264850463561  -22.48451386393078   -1.96914160406539
C           7.66062196841119  -23.66207894293708   -2.30284268372858
C           7.37232853687810  -24.84517528037964   -1.59209419308929
C           6.48042931259769  -24.83366591095744   -0.55646683127546
F           7.98199210926827  -25.98440322992576   -1.94239617021131
F           8.53904205535461  -23.70359198887927   -3.31176258682560
C           5.50558069347857  -21.22268559730566   -0.54504980044295
C           4.62051151301215  -21.20657913908823    0.49997675450639
C           3.87591672322371  -20.11228963546177    1.11633476755433
C           4.17758434631920  -18.78051164567590    1.00350259979677
C           3.64283748712450  -17.77584990783463    1.83837270302120
N           3.30029536291267  -16.92323951479724    2.52617246316142
C           5.14028450982538  -18.27074930244078    0.10720104342577
N           5.90146671629215  -17.80953415217787   -0.61696015767012
H          -5.49820350304307    3.97071780290412   -1.99571509355764
H          -3.68239367931899    3.28661390099164    2.56666915101931
H          -5.86564363366277    1.57234225364717   -2.23451140751412
H          -4.03928078735290    0.82551638844794    2.34581709343765
H          -5.59687774659874   -3.95256863845401   -1.40373261719885
H          -4.48307950274771   -8.53422763238041    5.68294072293841
H          -5.40975270695718   -7.21664644118905    4.93126090204415
H          -2.38152532379923   -7.27385520463483    5.40090443034794
H          -3.55548300027789   -6.29278320195708    6.28542533391340
H          -3.23446437168473   -5.95998675426707    4.58324900742879
H          -3.16506276806909  -10.31218405523188   -1.97729031598257
H          -2.99057318311629  -11.91914383951567   -1.23672270779962
H          -0.82943930725918   -9.75063873220956   -1.41649205431021
H          -0.88068393758942  -11.24202030479273   -2.36035709648787
H          -0.60424298008774  -11.31020659383023   -0.61799483711286
H          -2.11536485349345  -12.72766339041135    0.68669980371473
H          -2.71218452207363  -12.12965549086428    3.64003181809809
H          -1.08140270725539  -14.73897564139152    1.13434705751608
H          -2.21718349285206  -14.11426447080478    5.26448355707255
H           0.22560998057652  -18.39691114264832    4.19130763442521
H           1.49932613899049  -18.85770966539734    0.08292261841301
H           1.41321326274403  -20.79215865164803    3.45687913218829
H           4.67861716285761  -24.49444073041727    1.43129411068919
H           7.28727085233094  -21.58763757399248   -2.52091298426973
H           6.27109807119063  -25.74731661757422   -0.02251801677691
H           5.73788687055287  -20.33379443081342   -1.10976221197192
