113
 SCF done       -232.871383731447          0.000573188534
C          -0.03990780953742   -4.31986078522261   -6.19684942613228
C           0.62257018219955   -5.49852685582057   -6.39626483830065
F           1.88010511816298   -5.49529704928344   -6.85268544122677
C          -0.00784154614154   -6.73063862667351   -6.12568090645554
F           0.66451774093765   -7.86951572384304   -6.33251442817534
C          -1.29180320877309   -6.76651402551490   -5.65876398724133
C          -2.00151449694768   -5.56881446807694   -5.44358925452751
C          -1.36512476695584   -4.32252077751309   -5.71664201114256
C          -2.05686906460733   -3.10829818447027   -5.50713195208489
C          -3.34402754623115   -3.13947633582606   -5.03781698377283
C          -3.97524389317829   -4.38890267420011   -4.77311889117448
C          -3.33085487762637   -5.57783347286996   -4.96720911985313
C          -5.35290920437517   -4.15768612020813   -4.30714222649772
O          -6.18692928988183   -4.99426000305983   -4.03399051178248
C          -5.53282850692444   -2.68150115353916   -4.32566501492051
C          -4.27627571201068   -2.06622785580267   -4.71615160821014
C          -3.99758608242924   -0.72816720612863   -4.69073578582218
C          -4.89947777033076    0.25284683618495   -4.22314704176802
N          -5.57527885171636    1.08182309504746   -3.80769636891069
C          -2.75828369762476   -0.17112029928902   -5.07271294129668
N          -1.77230371255661    0.32995203611751   -5.37698704049391
C          -6.74073402756853   -2.08379568584253   -4.18064397921241
C          -7.91134795096037   -2.76348162931552   -3.71892717957890
C          -9.12130003269264   -2.84589749652770   -4.37975246337972
N          -9.38824475551788   -2.27171017164466   -5.63629315764350
O          -8.45918227008981   -1.72862532416403   -6.21481210102926
O         -10.52164160623096   -2.35002439464653   -6.06838761832965
C         -10.02961785897455   -3.67674389379046   -3.63485138826419
C          -9.37358357492259   -4.14281856156199   -2.54460673331104
C          -8.03324529785314   -3.60193763123141   -2.53025159849010
C          -7.09144899988128   -3.70958452028363   -1.52904621526851
C          -6.12438742060685   -2.73067098851506   -1.16179780881434
C          -5.58393714156799   -3.07790853720028    0.04304020161133
C          -6.12381149222151   -4.33788049646290    0.45481742679761
N          -5.71164000536532   -5.00361682946499    1.61853373394888
O          -6.21708707205733   -6.08516625371132    1.88360496314759
O          -4.86790704719493   -4.45808751914780    2.30847388401299
C          -7.02263584910469   -4.78683746465939   -0.51309777928467
C          -7.63304340826459   -6.04568894580436   -0.59829336997613
C          -8.07303803109185   -6.61627120337374   -1.76665595327222
C          -8.81096541363100   -7.81098414638153   -1.83587130294715
S          -9.36879393157089   -8.38208656171697   -3.38582147576544
C         -10.24472854511367   -9.67331069950942   -2.63306978267843
C         -10.02874646144912   -9.68881885166492   -1.24489517794031
C          -9.23507085161575   -8.64484157036813   -0.80241230510190
C         -10.49673337400104  -10.75175058379764   -0.29548757864068
O         -11.39127754827534  -10.57775834181854    0.48989352807590
C          -9.66028434289037  -12.00068294846839   -0.36510918030362
C         -11.15999862579572  -10.51984813721368   -3.31284756043188
S         -12.34473809826087  -11.36580810338596   -2.35500691849769
C         -11.32769938996131  -10.80525386146931   -4.66775649617494
C         -10.51877996299887  -10.22904554894028   -5.74782507533074
O          -9.67050107769741   -9.36466860395487   -5.56552781432813
C         -10.84844373714865  -10.75644948857109   -7.05407618541798
C         -10.28727492642605  -10.46910476833642   -8.28215225841920
N         -10.93208506920435  -11.18619241171188   -9.22899542235203
C         -10.68082313873557  -11.10774197445057  -10.64691696538417
C         -11.53767408785762  -10.02163407296384  -11.29363962512932
C         -11.90950769623212  -11.92521226986068   -8.65360812392188
C         -11.89410644185303  -11.69467639342647   -7.29503880245725
C         -12.72861075959869  -12.25547833192009   -6.24888818924593
O         -13.61552627837266  -13.06690665520877   -6.43518994458995
C         -12.37679687560132  -11.72982405387400   -4.90987128949760
C         -13.02910146431555  -12.13450174105190   -3.75668701682833
C         -14.17900456524440  -12.96517031726711   -3.66089993308262
C         -14.58877502422624  -13.69797967361521   -2.59688460984421
C         -16.02125436818844  -14.11388842931581   -2.48342658596973
O         -16.84840954669361  -14.10730936341567   -3.36009748173514
C         -16.20394381271510  -14.45043873866824   -1.05657507911633
C         -17.35580423759615  -14.75416691278734   -0.38914582423585
C         -17.29789388278343  -15.00889967884345    0.99937072068895
C         -16.04426608457565  -14.93362550594593    1.67497373103913
C         -15.99766717619480  -15.17600056572265    3.06273571122421
C         -17.13993092567297  -15.48434232143330    3.74670049048790
C         -18.37842657198908  -15.56275339444852    3.07699406101151
C         -18.45710256908424  -15.32981661805591    1.73248603779333
F         -19.48072254012232  -15.86719793546704    3.77253549380676
F         -17.09426000853328  -15.71630270691985    5.06366298241503
C         -14.86677882051968  -14.62432272749951    0.95748427488730
C         -14.94556578055904  -14.39544679324637   -0.39039533687263
C         -13.91380275345675  -14.09056225193522   -1.37414102043783
C         -12.58174782082850  -14.37294784682779   -1.24234188938530
C         -11.65045269720912  -14.27742619001324   -2.29720051644458
N         -10.85371490133165  -14.23188955846733   -3.12260973497411
C         -11.99509244543833  -14.85137431354414   -0.05232967393834
N         -11.45808661974992  -15.22390418300367    0.89071930743947
H           0.45730976047879   -3.38592945545839   -6.40752069811706
H          -1.75950986628913   -7.71727625117085   -5.45640870572896
H          -1.55298556222154   -2.18124672230793   -5.72860859411247
H          -3.82988952278266   -6.51227022230578   -4.75980881663065
H          -6.87568510420926   -1.05243550928111   -4.48591795072020
H         -11.04213758771277   -3.86846544794616   -3.93304173968398
H          -9.79251251853060   -4.72834587201684   -1.74981547245136
H          -5.95845976477105   -1.80856147570851   -1.68521941824927
H          -4.86941877811199   -2.52197853358891    0.62111391162858
H          -7.68147619742798   -6.61057885182038    0.32384740046420
H          -7.83479705919260   -6.14249519970099   -2.70970588402268
H          -8.96591542827007   -8.50835166967353    0.22973253978028
H          -8.64695424308808  -11.75302905246657   -0.05090079062310
H          -9.60601782427519  -12.37715045852485   -1.38477499916514
H         -10.06036089513546  -12.76423864070129    0.29727059100065
H          -9.47349912438786   -9.81181388845251   -8.51644487599706
H         -10.90748017906259  -12.07897229167473  -11.09345952248493
H          -9.62111126325656  -10.89008234377246  -10.80033420391429
H         -12.59379526244753  -10.22965079566315  -11.14012622846179
H         -11.34211237084179   -9.98289878548119  -12.36122595143556
H         -11.30993157648730   -9.05009814584956  -10.86185502685422
H         -12.55011546519158  -12.56897903019552   -9.22291314497686
H         -14.83753657008061  -12.95905820364339   -4.52525405040338
H         -18.29863638765708  -14.79801604422253   -0.91267653215217
H         -15.05800920652099  -15.12253003947020    3.58988891403815
H         -19.41247484052669  -15.39236560224822    1.23548009178327
H         -13.93233507343957  -14.56004812532038    1.49203791087761
