126
 SCF done       -268.254807457944          0.000944655547
C          -5.26123728831718    1.53144464434056    7.84644099545426
C          -4.32063568596133    1.79646619052249    8.80173209733284
F          -4.43814820616435    2.87863430684871    9.57961930262545
C          -3.21678101969561    0.93678801533515    8.98066951005292
F          -2.31166262905839    1.22293812910007    9.92358428445259
C          -3.06946704266166   -0.17600786739530    8.20079415704886
C          -4.02203696056141   -0.47699751991648    7.20765050110952
C          -5.13883290720275    0.39150227538262    7.02592348938480
C          -6.10848958464932    0.10817596337523    6.03854757575232
C          -5.96751622794439   -1.01160483125102    5.26018144939761
C          -4.84945370157631   -1.87537795602030    5.45028196773874
C          -3.89408912114479   -1.62269723193237    6.39188318923988
C          -4.93360808272588   -2.99725269231297    4.50040944954857
O          -4.07388128235307   -3.78254900537085    4.18359512786425
C          -6.29737222368352   -2.87349479986019    3.88886296042311
C          -6.81112943344619   -1.55080705083994    4.20100384526975
C          -7.86405962788593   -0.92547495234360    3.59199718519033
C          -8.57271996171781   -1.47992330577291    2.50463388352035
N          -9.15397052309689   -1.89662304356602    1.60675352204466
C          -8.32329597532655    0.36392126390913    3.93741974802180
N          -8.73439737536990    1.40665989282764    4.18081124671118
C          -6.92902325148794   -3.89409661475913    3.26912321574557
C          -6.45391425888135   -5.24475141620279    3.23258892075607
C          -5.98594408536012   -6.03211398496553    4.26259936442377
N          -5.80903802487999   -5.70504528132950    5.62445438305219
O          -5.42195910581456   -6.58854419847261    6.36074059898146
O          -6.07801648714668   -4.57307454088332    6.00291159837400
C          -5.80538304141141   -7.38652518061489    3.78261028679734
C          -6.20446208965055   -7.45300994137536    2.48946169848319
C          -6.62034371137807   -6.14388632114817    2.06667844261617
C          -6.97896042101359   -5.70654685653589    0.81088876292018
C          -6.77886850868758   -4.37274976747832    0.34190872798858
C          -7.02121919745588   -4.34189897497958   -0.99696792245528
C          -7.48595997262506   -5.62498879071051   -1.42806841405900
N          -7.88317244529933   -5.76789218564972   -2.77616667557947
O          -8.60060253968661   -6.70111222269921   -3.10326163791753
O          -7.49739923936820   -4.91659713534926   -3.55203958854332
C          -7.49533621764966   -6.50801779345043   -0.33371540190583
C          -7.95592915700908   -7.81977443515918   -0.13714365477832
C          -8.44438398474027   -8.69186996192658   -1.08617809697224
C          -8.88853781084223  -10.00328340550230   -0.85812547125977
C          -8.53336336897564  -10.95283141452962    0.10915136442228
N          -7.51398978739907  -10.90690362071347    1.08173036997692
O          -7.55360864206441  -11.73607457769204    1.96866144834347
O          -6.63805172504953  -10.06359519937369    0.97229007778579
C          -9.25332019303245  -12.16235250823567   -0.12205504408922
C         -10.01619789433971  -12.01783456541193   -1.24573015371523
C          -9.84317616692966  -10.70036870330994   -1.75808499297952
C         -10.51702284772296  -10.14832159817866   -2.83304500961496
C         -10.87545084381860   -8.78692530479174   -3.03694321570173
C         -11.67540750677822   -8.70145491476630   -4.14149284849997
C         -11.83175425763225  -10.00264330018099   -4.71199014366429
N         -12.44573291287356  -10.16998458447792   -5.96916683571402
O         -12.28729779289686  -11.22547860172112   -6.56417180252766
O         -13.08984802477967   -9.23668482561166   -6.40368878090026
C         -11.14074202957176  -10.93538621917075   -3.93150967363453
C         -10.88470350172329  -12.30398778294916   -4.10802909978250
C         -11.71072182056588  -13.22581295079808   -4.71027192527805
C         -11.44886489559047  -14.58884850187861   -4.92511029684025
C         -10.39711920863781  -15.45839542196320   -4.57820238953243
N          -9.16317415264234  -15.25470029109683   -3.92286319275460
O          -8.97727612411771  -14.23586836152138   -3.27377070520732
O          -8.34067945445430  -16.14425432196058   -4.02098908407453
C         -10.74364582168958  -16.79120708391801   -4.96422981360339
C         -12.00311510546661  -16.80183029974209   -5.48272380800690
C         -12.47625991485582  -15.45520183718888   -5.55075261638704
C         -13.61632970369008  -15.06274577101756   -6.22451238758083
C         -13.80648426874314  -13.87591581573965   -6.99762922511697
C         -14.93794907195474  -14.01545102145673   -7.74466636191267
C         -15.56808213528257  -15.26213564937334   -7.41031518414716
N         -16.82040486307852  -15.64433910570272   -7.93111927658395
O         -17.40896653102729  -16.58248988194279   -7.40965826840855
O         -17.24555528071441  -15.01669726374820   -8.87847029163603
C         -14.79694441289737  -15.92820898983908   -6.46836175435071
C         -15.20180038910277  -17.07815726421085   -5.75399171549636
C         -14.82016133957495  -17.43035331437088   -4.49669515908382
C         -15.37881502109519  -18.54579359637026   -3.81389040826596
C         -16.62571621331765  -19.07087564187553   -3.93253651069737
C         -16.88095322357782  -20.45321152876624   -3.41409805722626
O         -16.14812421861948  -21.09002254304939   -2.69658542976702
C         -18.16067357241220  -20.86060969732370   -4.01806778736238
C         -18.78120665976501  -22.07745437739425   -3.97883378267999
C         -20.00316851056963  -22.24630068231055   -4.66625115791227
C         -20.55302730652983  -21.15254224186494   -5.39834951775354
C         -21.76572748439724  -21.33334712477033   -6.09358982894084
C         -22.40611693744084  -22.54024494806383   -6.05854185443521
C         -21.86379676385640  -23.61996422394878   -5.33071458200612
C         -20.68755779570145  -23.47772850291793   -4.64955670592845
F         -22.51314688144883  -24.78991069086895   -5.31406632789276
F         -23.55814915250215  -22.71078444212588   -6.71607423382136
C         -19.89179265186952  -19.90374178596714   -5.41719985449536
C         -18.72038658878036  -19.75635489576780   -4.72353369841522
C         -17.85741545671271  -18.59306054398074   -4.54008176629536
C         -18.26484679274170  -17.29497481530650   -4.67461634079587
C         -17.48610962164031  -16.17441947112148   -4.32519618667945
N         -16.89761226734192  -15.22948176527350   -4.04451322637559
C         -19.55765953641657  -16.92295203255713   -5.10660029810515
N         -20.60285113362487  -16.57014445508711   -5.41874553590929
H          -6.09898117809619    2.19996755677101    7.72323590574265
H          -2.22036622483921   -0.82417490534857    8.35085374231610
H          -6.94690911976191    0.77758455947220    5.92860138881298
H          -3.05889479291366   -2.29382149499655    6.52018064825671
H          -7.88643632139853   -3.72737714330728    2.79052217170576
H          -5.41091050203219   -8.17884182377455    4.38986794742623
H          -6.10505637396941   -8.30951349341489    1.85115333301689
H          -6.37843193683370   -3.56993095105203    0.92850055242392
H          -6.90838120570330   -3.50438103703957   -1.65987589463275
H          -7.96209568502763   -8.13969456005390    0.89364421433520
H          -8.54527202719746   -8.33958462471016   -2.10245260897500
H          -9.16663110634360  -13.03213463472802    0.50170318892139
H         -10.70714014657521  -12.74236119875897   -1.62672087708889
H         -10.63432038941927   -7.97351030626498   -2.38388999816147
H         -12.12198519370520   -7.81614989793305   -4.55398066554387
H          -9.95439029231266  -12.65413526169596   -3.68190930160457
H         -12.69699480999872  -12.90506166426878   -5.00975515015829
H         -10.08475596119769  -17.62974743506334   -4.83671260646640
H         -12.51309604958526  -17.65043286089537   -5.89451825967433
H         -13.10365738821385  -13.06980404397726   -7.08463601913027
H         -15.32981680198967  -13.32558850760030   -8.46825949513077
H         -15.97003043157867  -17.67191493360596   -6.23484800112878
H         -14.05534196254884  -16.87041336672660   -3.97684066750864
H         -14.72502432746013  -19.07457270409384   -3.12518328184177
H         -18.34502872044394  -22.89942912279131   -3.43192294658341
H         -22.19563240173733  -20.51641471196671   -6.65171328130268
H         -20.28606449428873  -24.31367720569297   -4.09848452729980
H         -20.31739996383655  -19.09592476685998   -5.99048324802712
