106
 SCF done       -215.625209926816          0.000858651612
C          -5.86055895616091   -0.77697592427986   -0.95763992794529
C          -5.34161906132797   -0.68823055011334   -2.21884092783880
F          -4.80581006835360    0.46108278118339   -2.64759864713808
C          -5.36293232111118   -1.80174337562411   -3.08308588911314
F          -4.84678104611302   -1.68683099728863   -4.31379646644235
C          -5.90475535933344   -2.98798240331043   -2.67452986469302
C          -6.44911971179220   -3.11085497882818   -1.38119021331141
C          -6.42450172160150   -1.98676475490480   -0.50501066706969
C          -6.95723605143036   -2.08936771694997    0.80008320598061
C          -7.49763934182702   -3.27828958793933    1.21357810415264
C          -7.53271652789464   -4.39259848716245    0.32783862557959
C          -7.02307492408953   -4.32266980637245   -0.93733980899301
C          -8.19326948883065   -5.53219266883315    0.99112422376886
O          -8.43247213738548   -6.61677171007348    0.50090629905915
C          -8.58741503453191   -5.03250742175716    2.33154821929258
C          -8.08743098363931   -3.67936669647535    2.48460613204272
C          -8.07178205879556   -2.96195554797696    3.64929805759483
C          -8.49818015089790   -3.47917971315895    4.89209936320409
N          -8.77431520870717   -3.87443225045283    5.93347246759028
C          -7.56483885175840   -1.65037882050060    3.76130994927249
N          -7.16872418435757   -0.58217950469997    3.89831087838596
C          -9.46446249471930   -5.67135067641779    3.15209582266321
C          -9.85478886138431   -7.03299157420445    3.01381595608440
C         -11.15522883323266   -7.52645319278852    3.01917586537899
N         -12.32009085483341   -6.75211900929840    3.14465985800195
O         -12.19679294817056   -5.53647446228379    3.17221021604814
O         -13.38480680668984   -7.33822919935351    3.21903441879578
C         -11.13563156395597   -8.93850108529796    2.78574336725522
C          -9.84212716748526   -9.31902608904760    2.60821076883860
C          -8.98883629168143   -8.16839166049821    2.75539874448595
C          -7.60439957296869   -8.17664332893301    2.85355382754982
C          -6.80135258412672   -7.35240721218523    3.67282842964352
C          -5.52701839332087   -7.86824425194477    3.71078812409249
C          -5.45196519387084   -8.99943503122407    2.85751924189011
N          -4.28551507215818   -9.73747715987265    2.64803514762900
O          -3.26692102591783   -9.36243282896650    3.20578098858168
O          -4.34112037044370  -10.73365154871575    1.93337459321067
C          -6.70907050642264   -9.18835213858212    2.24959497926549
C          -7.00201184902375  -10.01090024462931    1.17053493878259
C          -8.10052159610699   -9.84553598619820    0.34157093522050
C          -8.52371808546691  -10.70145195441097   -0.66661067045936
S          -9.72640863640731  -10.09058321070600   -1.77510300889065
C          -9.71505924139778  -11.52091988762753   -2.72807960971215
C          -8.86531044449847  -12.49895555630529   -2.17444172082120
C          -8.18653445386701  -12.04155744982411   -1.00340621806327
C          -7.33769697500999  -12.91335285288483   -0.31296163577812
C          -7.13269568364017  -14.19832539193358   -0.77156095653897
C          -6.22067478495826  -15.13235781607718   -0.04843896702991
C          -7.82962695887072  -14.64709315351777   -1.90976102081606
C          -8.68977099668571  -13.83207075845136   -2.59342868417456
C         -10.52016049693116  -11.55192047912526   -3.90953963759258
C         -10.27485107077299  -12.29689710780271   -4.99583540593518
C         -11.16904552863687  -12.34174088799027   -6.18514124885287
C         -11.62173748056149  -13.78344491188194   -6.45000272789763
O         -12.53073630815009  -14.44612325194452   -6.06659451967610
C         -10.41953714995483  -12.44638466922027   -7.52121655499097
O          -9.99474383359710  -11.65148198566545   -8.29257651754678
C         -10.54609064361855  -13.97112064036077   -7.52014901004806
C         -10.84125440670289  -14.73396317462739   -8.74885738837238
C         -11.44459266570549  -15.92793862629483   -8.86384757434580
C         -11.91194907462804  -16.35096975383621  -10.22929895190371
O         -11.56843560090137  -15.86617989075578  -11.27773822918544
C         -12.89306383458976  -17.41994104160540   -9.98892612136845
C         -13.70180228523100  -18.05355505511727  -10.88977377103273
C         -14.61280718430579  -19.02786161492732  -10.42740794647853
C         -14.67680185016209  -19.31798977595029   -9.03244512766163
C         -15.59856595255335  -20.28162196485178   -8.57444181027534
C         -16.41355974870653  -20.92977700451396   -9.45940557864588
C         -16.34651508066683  -20.64455745154888  -10.83958015199592
C         -15.46578760973362  -19.71347871172715  -11.31453716151187
F         -17.15667308615529  -21.29494450322372  -11.68146720685973
F         -17.28615704475111  -21.84460973697644   -9.02444390920115
C         -13.82402931149491  -18.65079218793699   -8.12549448935339
C         -12.93281114975792  -17.72139218635470   -8.59728623637476
C         -11.93084126808769  -16.91732484855995   -7.90482458607948
C         -11.45210788431095  -17.18760951806003   -6.65411543311953
C         -10.37853696449785  -16.52273515122333   -6.03568954732144
N          -9.49697322715118  -16.01218942087317   -5.50416249585337
C         -11.94630529491834  -18.21933491399816   -5.82306814854325
N         -12.29037147636947  -19.04356532395810   -5.10408658841808
H          -5.83455867979642    0.08390843088697   -0.30802621817989
H          -5.91366328427557   -3.83014565252850   -3.34860261594486
H          -6.93088937510928   -1.22209310085347    1.44009127625574
H          -7.05658395277375   -5.18099617915514   -1.59117387814102
H          -9.97149765316104   -5.10745099919349    3.92728411277089
H         -12.01569107916392   -9.55174333046353    2.76144476381988
H          -9.48377827032132  -10.32333432057766    2.48835704471557
H          -7.16562887068447   -6.53813519772268    4.27004420884118
H          -4.70043359595746   -7.50257110426136    4.29147228078695
H          -6.24804893313686  -10.74455632510202    0.92051905817538
H          -8.64662460428262   -8.91382502280661    0.42664892418353
H          -6.85153277748205  -12.59841292901530    0.59474509114364
H          -6.80441541806520  -15.87576834872551    0.49512227479381
H          -5.59493927965331  -14.59883683425081    0.66162820695920
H          -5.58522740128010  -15.66529605294359   -0.75291742865752
H          -7.69439972954709  -15.66748060340466   -2.23516779783583
H          -9.25121934664601  -14.22541790829669   -3.42458507437378
H         -11.35874391991188  -10.86672318462153   -3.91347556899120
H          -9.39605469164188  -12.92177196154029   -5.04664907775633
H         -11.95914378325522  -11.59274444988237   -6.12222978221313
H          -9.64701920252663  -14.36623489373095   -7.02844355272883
H         -10.62086498902848  -14.21861525125206   -9.67897472770093
H         -13.64713514978615  -17.81097664827209  -11.94005276305226
H         -15.66078661322217  -20.51434956188225   -7.52287438918697
H         -15.42762937312387  -19.50594035842803  -12.37243074555859
H         -13.90612404608714  -18.88114762428992   -7.07561636018918
