110
 SCF done       -230.167539808771          0.000662568713
C          -5.70256803715173   -7.28149004786892    5.36767642348458
C          -6.43908428463064   -8.25362883835717    5.98549275224552
F          -6.42067044938515   -8.36244289001223    7.31887832184692
C          -7.22836556760081   -9.14882542358915    5.23302449313483
F          -7.93993586885370  -10.08161602905512    5.87457182897559
C          -7.26479124289463   -9.06736850242938    3.86872251538282
C          -6.50588143307987   -8.08323375309094    3.20400285357768
C          -5.71789923591487   -7.16735066957368    3.96329566103364
C          -4.97779160781776   -6.15136737877657    3.31547572353808
C          -5.01101382335898   -6.05979088857209    1.94796816927037
C          -5.76834522644910   -7.00710939944064    1.19664942158909
C          -6.50713447519241   -7.98839603211801    1.79608208678798
C          -5.61341696311337   -6.73106212739908   -0.23063731493807
O          -5.98556000399392   -7.40036229592977   -1.17320249778641
C          -4.79895190361737   -5.48750657873649   -0.31604840000852
C          -4.41605726075336   -5.09560351312870    1.03012894773337
C          -3.70546377388408   -3.97808786471820    1.36874564309191
C          -3.27831454588856   -3.00920050526448    0.43459482703476
N          -2.95448860245086   -2.17594709041710   -0.28444940054003
C          -3.35099194912613   -3.63693711432821    2.69208335744128
N          -3.03376574162260   -3.31774090582535    3.74707602053158
C          -4.44956048228747   -4.96822873771038   -1.51796210862011
C          -5.05371439509126   -5.44083823401796   -2.72700628607726
C          -4.42804723518389   -5.96153936763118   -3.83177107271753
N          -3.02852381757770   -6.07288199141285   -3.98721605953640
O          -2.60890652008498   -6.48272981349130   -5.04944679927732
O          -2.33554379346595   -5.74211714131980   -3.03979857129871
C          -5.41381678573801   -6.47516289586374   -4.75621944930755
C          -6.64019472711307   -6.31684762826402   -4.20627392541953
C          -6.50394147419752   -5.63070734068849   -2.94133865757801
C          -7.48277912868271   -5.07082975672205   -2.16032442440431
C          -7.33064292517278   -3.89335976316906   -1.34155466309236
C          -8.55117168529912   -3.50841314879685   -0.90211290546757
C          -9.52832824626522   -4.47857655094241   -1.34439101582573
N         -10.88741055815098   -4.39892845616082   -0.97323643210313
O         -11.65441243521671   -5.25754481137389   -1.37373663374715
O         -11.21579424152920   -3.46113413757898   -0.27150872136021
C          -8.90570360435658   -5.45401744947065   -2.09644713545407
C          -9.47561743488696   -6.68273964993807   -2.55366293771830
C          -8.78084524786197   -7.81943913641545   -2.70368991757466
C          -9.39503016311944   -9.08917403959445   -3.16370898050338
O          -8.85300959519276   -9.55268572255364   -4.40955295014051
C          -8.26833862957741  -10.71067966586442   -3.81105353986665
C          -8.84852257129435  -10.35898945499140   -2.43598538808341
C          -9.83730763257723  -11.22067771825438   -1.76121935368872
C         -10.01498147816901  -11.25936295871653   -0.39439394678191
N          -9.40429902892125  -10.44259475377218    0.56688173519443
O          -8.85990565581147   -9.40989574545257    0.19793901393865
O          -9.42941449164322  -10.80599552470795    1.72953645110647
C         -10.90818487646457  -12.34162388229726   -0.03763635478365
C         -11.23415522897659  -13.00211190268436   -1.16709189749823
C         -10.63547946129498  -12.32488198666059   -2.30392307772506
C         -10.92152197355143  -12.63049817501833   -3.61587251732420
C         -11.07917334757957  -11.70288184679689   -4.70056400680771
C         -11.71110761020527  -12.33239914361667   -5.72082744669389
C         -11.85346088440325  -13.73026042093069   -5.40029207136570
N         -12.54342384882514  -14.59784295093833   -6.25341242750962
O         -12.86788101973804  -14.17222503051285   -7.35240424781276
O         -12.76988784091777  -15.73942461786263   -5.87334822340307
C         -11.32417841613384  -13.96802403852752   -4.13004088745571
C         -10.90732237173271  -15.12098587998983   -3.44339444680646
C         -10.70957767305974  -16.43773754819610   -3.79618687817130
C         -10.67090276091696  -17.15113845022355   -5.00393104859147
C         -10.52357964071307  -16.83293237887402   -6.33060870226192
C         -10.92254595790484  -17.89493130003488   -7.32052417741364
O         -11.11263158074539  -19.05770550026025   -7.06953866435174
C         -11.03573116535785  -17.19708689907945   -8.61038809245859
C         -11.51485859528063  -17.66199781796630   -9.80104396637494
C         -11.56373679059712  -16.78592398059036  -10.90877908629185
C         -11.11938742100290  -15.43972676920199  -10.75719492719640
C         -11.18361196979390  -14.56723905746949  -11.86161426493515
C         -11.66270174927953  -15.01130229467737  -13.06253175535343
C         -12.09798739098875  -16.34409835757952  -13.21286407665893
C         -12.05067399551978  -17.21385375566071  -12.15878945097002
F         -12.55883117526601  -16.75164577055510  -14.40059864031476
F         -11.72127042687243  -14.18342039484958  -14.11116093394632
C         -10.62272617135181  -14.98825329968068   -9.51365051964391
C         -10.57741689907783  -15.85763456467727   -8.45710018519081
C         -10.14012821385457  -15.66661730801100   -7.07690233830968
C          -9.43977935663403  -14.57793803451482   -6.61048805885813
C          -8.82508067761818  -14.50866835208051   -5.34894280985400
N          -8.29717791698696  -14.38403521039116   -4.33650812006312
C          -9.14640340244199  -13.42803228490608   -7.37713544060603
N          -8.89736995675325  -12.44873363030869   -7.91938500649209
H          -5.11146965666176   -6.60162142235631    5.96119215549854
H          -7.88241006718021   -9.75389363467980    3.30847360919989
H          -4.40496364270800   -5.46577586706937    3.91928294906719
H          -7.10726981433616   -8.65748464822360    1.19969412642117
H          -3.66500449189832   -4.22693938734818   -1.60931244354143
H          -5.16528377538073   -6.91436123494168   -5.70357098864401
H          -7.58036461176011   -6.55834054378190   -4.66197696790446
H          -6.41198997521295   -3.35080542113244   -1.22579879088705
H          -8.80125694220489   -2.64246425964862   -0.31911931116213
H         -10.55021128149351   -6.67923809734077   -2.68783290254959
H          -7.72599197010673   -7.86373238602157   -2.47706193180458
H         -10.48795041841616   -9.00708120619545   -3.20316387642974
H          -7.17696525021299  -10.67440263278550   -3.85126102250904
H          -8.61777813618555  -11.63674945572684   -4.27105921944531
H          -8.07590023798290  -10.07304852419609   -1.72032233420116
H         -11.23468793205684  -12.53663097294129    0.96555626990388
H         -11.95762044248803  -13.78990583396395   -1.24570521613559
H         -10.84764376292495  -10.65858403779165   -4.66859127706859
H         -12.06153135578114  -11.90150308154788   -6.63973353784529
H         -10.64954610217340  -14.91797985943944   -2.41112486084456
H         -10.54943057851767  -17.08450716402781   -2.93957509471078
H         -10.82342467317164  -18.22229213493437   -4.87555113932435
H         -11.86019101041539  -18.68017767832821   -9.89410751264774
H         -10.85533131751734  -13.54435679431020  -11.76349511312036
H         -12.39003450386741  -18.22937005648036  -12.29000253939218
H         -10.31258429965169  -13.95996138565980   -9.42453503836941
