118
 SCF done       -217.823961862338          0.000565138816
C          -6.29515459548274   -1.19922350646441    3.32406395837190
C          -7.15223442953279   -1.48388868795976    4.34981245131817
F          -7.39759496950332   -0.56959203233882    5.29582427270536
C          -7.78730756651382   -2.74036675080320    4.42615851338170
F          -8.62079636937558   -2.99219494361543    5.44337929877087
C          -7.55672373458317   -3.69453225352558    3.47518202874087
C          -6.67740934996160   -3.43228520797677    2.40641270550482
C          -6.03522880654577   -2.16192214439682    2.32802080564760
C          -5.14925833041713   -1.87650199118011    1.26472474042241
C          -4.91223305420451   -2.83259021917657    0.31262563981749
C          -5.55024992527615   -4.10293542677784    0.40166048892827
C          -6.41392794271894   -4.40437032028270    1.41606378148087
C          -5.10405684356600   -4.96174569198535   -0.71119260915571
O          -5.42081871056488   -6.11313113822352   -0.91847196116392
C          -4.11550143993709   -4.14289123681986   -1.46368245320612
C          -4.07331829096759   -2.81629870023425   -0.87850018470841
C          -3.44898934379697   -1.72673034257502   -1.42066986136672
C          -2.79345978048100   -1.74738371324628   -2.67113389576837
N          -2.29952227973221   -1.70282578841840   -3.70595755837196
C          -3.44581665902692   -0.44436718493423   -0.83267416410089
N          -3.41163726648965    0.61337160201832   -0.38948094163327
C          -3.26522399272138   -4.65981981449528   -2.38830728146013
C          -3.42312071764830   -5.94584583774671   -2.98104286653003
C          -2.47199148177877   -6.95107071696396   -3.04019961044499
N          -1.16673342794095   -6.86539587797933   -2.52720096094225
O          -0.41661297214019   -7.80248531888718   -2.72603065558640
O          -0.86285097334947   -5.85067064728169   -1.91763219709431
C          -3.05450335316924   -8.12883017560794   -3.61715954363637
C          -4.36342796211405   -7.86917151940854   -3.88183930718116
C          -4.65340605351713   -6.50754483190691   -3.53150171835400
C          -5.80588512105466   -5.78848233393328   -3.79409116227791
C          -5.89748509064274   -4.39022409117075   -4.04768856325414
C          -7.17915624650054   -4.09723859889080   -4.41008056804649
C          -7.97037107386426   -5.29082185138935   -4.35878830876677
N          -9.37005076665853   -5.23222281070225   -4.48027982211580
O          -9.85265144443042   -4.16081242095391   -4.80680955683496
O         -10.03276722359745   -6.22428044539153   -4.22133552312851
C          -7.15285600815349   -6.36106428526596   -3.98129627345268
C          -7.43198837323729   -7.70226336994476   -3.66012943391611
C          -8.42194421804528   -8.47561222615978   -4.20758932565608
C          -8.73612004041044   -9.81261995598184   -3.91714605428957
N          -8.35345678097324  -10.62419725362333   -2.87417482052529
C          -7.60088192116958  -10.27649486775258   -1.68815777934725
C          -8.34131639109956   -9.27541734928950   -0.80784360782978
C          -8.92083947867626  -11.90903552640353   -2.97777270265606
O          -8.73854622212829  -12.79142802112596   -2.16624328307123
C          -9.69266621919868  -11.87486211885237   -4.20648297817969
C          -9.56739271719990  -10.59153017057917   -4.74548855336709
C         -10.30473151954557  -10.54028229210003   -5.99546291021047
O         -10.45028913162339   -9.67191506010791   -6.82168525591805
N         -10.85776589360451  -11.83488416093233   -6.11203645268015
C         -11.72864886504427  -12.17070225857585   -7.21315097712303
C         -13.19876151576346  -12.13423156898225   -6.80351279636879
C         -10.50624170394334  -12.64666449849924   -5.06414977729033
C         -10.89450744328058  -13.99047870831845   -4.94676435021297
C         -10.52390731082513  -14.78686748714473   -3.89533183650658
C         -10.88451864219736  -16.14207543407624   -3.76249855474470
C         -10.51856927455623  -16.97293267469028   -2.71172963448074
C         -11.06000821692396  -18.26688002384601   -2.92341260145130
C         -11.80161306683396  -18.19386673003809   -4.19475467283738
C         -11.69024441684059  -16.93001697766327   -4.68185070860655
C         -12.50745976141090  -19.22542517220504   -4.82475600973838
N         -13.09592297965969  -20.04146111611606   -5.37956485937236
C         -10.93679588862832  -19.38264798722975   -2.12060189725482
C         -11.49044513516760  -20.67166418653407   -2.33231008594570
C         -11.14522454368403  -21.49896087099524   -1.28582309077919
C         -10.33024084863095  -20.72357134707076   -0.35766954172674
C         -10.19746811098685  -19.46267314782696   -0.84153235425457
C          -9.47626400693174  -18.43902561418710   -0.21754165945681
N          -8.86941545438354  -17.62985845937563    0.32703446793544
C         -11.52172439228956  -22.86512149136386   -1.14955088493469
C         -11.15508768691119  -23.67658486186508   -0.14158857776540
C         -11.60750139145125  -25.07635125515633   -0.01371812599871
S         -12.70828213563667  -25.12474843251494    1.45137434255321
C         -11.37437441908115  -26.02891170685889    2.40159477571389
N         -10.69308694384093  -26.83787168591705    1.47818557555996
C         -10.45021980195639  -26.10206310802842    0.23706757172929
N         -10.41248421193004  -27.06589355450117   -0.82685484008003
C         -11.36708210533688  -28.09127902326391   -0.42199451487589
C         -11.29611440370012  -28.12111531150175    1.11658987310082
H          -5.81841176335352   -0.23251016044478    3.27946868560541
H          -8.05062755764605   -4.65071299481319    3.54871456416556
H          -4.67144622661437   -0.91043774603103    1.23332219747686
H          -6.88846566602323   -5.37271909475714    1.46382247689452
H          -2.36289880869218   -4.11841241409000   -2.65041465393078
H          -2.51303819940851   -9.03980113059868   -3.78710417639930
H          -5.04510093400393   -8.52359500629243   -4.39060130655421
H          -5.06739386572339   -3.71014088999288   -4.04680582764415
H          -7.57693515736561   -3.13875070651832   -4.68642854404713
H          -6.73719094892625   -8.13715440398017   -2.95786906883225
H          -9.02132793157937   -8.06870054267304   -5.01042606098152
H          -6.61185453885709   -9.90351250844789   -1.96558301181091
H          -7.46750698985857  -11.21687946429114   -1.14441012822531
H          -8.56280682777783   -8.35910748158736   -1.34918735056747
H          -7.72580934018577   -9.02946293120090    0.05254272659289
H          -9.27657937882917   -9.70582978483606   -0.45812139577578
H         -11.45567134053422  -13.15211673312860   -7.61102326320337
H         -11.54457152014036  -11.41637088245226   -7.98313846547098
H         -13.40286866089411  -12.84580112962866   -6.00628308626180
H         -13.82387636240622  -12.37655861830509   -7.65824253169235
H         -13.46102196797767  -11.13909933676175   -6.45333706704449
H         -11.50778893332297  -14.40117898245457   -5.73521718901036
H          -9.91256694773287  -14.36878577351936   -3.10579310681536
H          -9.91903842910594  -16.68063411707699   -1.87170504254944
H         -12.12736230180072  -16.57601018890272   -5.59672418093354
H         -12.08898448158321  -20.95143923236845   -3.17668636911485
H          -9.90853569006371  -21.09104141832912    0.55878880852927
H         -12.14595302366721  -23.25957098101268   -1.94130598209579
H         -10.54118304364477  -23.30891761643456    0.66935920406500
H         -12.18867208693113  -25.38606776352322   -0.88198771493416
H         -11.84320458993667  -26.59490050000094    3.20146822290476
H         -10.71257808923701  -25.26530317008080    2.81292419519125
H          -9.50799906183046  -25.54906957638221    0.30742641374973
H          -9.48257343474469  -27.45975846974888   -0.91626800519520
H         -11.13128269275832  -29.04809276882248   -0.88164750386757
H         -12.36321243544992  -27.78159596943383   -0.74945281210418
H         -10.63896987440617  -28.92030080638271    1.47277125888560
H         -12.28254371896783  -28.24602437904939    1.56621286112247
