121
 SCF done       -244.084954975740          0.000853986453
C           3.93209885724723   -5.66293391441164    3.93114823971024
C           4.72544362850240   -6.73344805660260    4.23592710407736
F           5.93257718765048   -6.54284533183075    4.78264168093115
C           4.28599348618675   -8.04820482741565    3.98003763855072
F           5.08448507047441   -9.07835734743897    4.28890036092629
C           3.05887875522565   -8.27408109454678    3.42214156762255
C           2.21847199745644   -7.19173699421704    3.09629294152477
C           2.66093939074665   -5.86178715446835    3.35600148982796
C           1.83268030403032   -4.75970105671412    3.04208724559333
C           0.60229669392826   -4.98176267502288    2.48283319344391
C           0.17283975597856   -6.31315816356691    2.21673878002629
C           0.94778354146870   -7.39718198147939    2.51468789724260
C          -1.16441516012094   -6.27845118808834    1.59913666429098
O          -1.84430267378044   -7.23699713782609    1.28505355847661
C          -1.48909909360730   -4.85248052384190    1.42356993518879
C          -0.45930741152998   -4.06496777786321    2.07830322778065
C          -0.51769454517130   -2.72812421862760    2.36362755980255
C           0.52020296534524   -2.01921294683108    3.00499064830644
N           1.33933565549285   -1.39745913139592    3.51414483449627
C          -1.64484671325077   -1.90468025584008    2.14168350485688
N          -2.53852502546636   -1.19048915509084    2.05389616704068
C          -2.49044691137999   -4.35192449476562    0.63940882252592
C          -3.52402989359981   -5.03706737136707   -0.02720545959099
S          -3.97450390647189   -6.71739486747428    0.14409878805250
C          -5.35400012145781   -6.54857908644853   -0.91991369309326
C          -5.43280291187169   -5.23577421924385   -1.40654215032894
C          -4.41041354170702   -4.41475319911269   -0.90466994703077
C          -4.39460105915270   -3.03819366289562   -1.38759626349283
O          -3.60038057813209   -2.16880836351234   -1.17368517446024
S          -5.82168266675112   -2.82960894477302   -2.46423519119910
C          -6.36222017699234   -4.55254021300122   -2.29336482212910
O          -7.34021355223344   -4.94885618878435   -2.86205071514605
C          -6.13194178047221   -7.70746153650324   -1.12784475249001
C          -7.20257717000912   -7.81434430836018   -1.96292347657431
C          -7.99497067093409   -8.97690534525320   -2.11373591532540
C          -8.12007819407938  -10.03214860538911   -1.22343143611267
C          -9.18168110325373  -10.87639778984119   -1.62508118037463
O          -9.40950700948376  -11.97870117645715   -0.89935840113568
C         -10.49655930006049  -12.83556452323210   -1.16362454449452
C          -9.75407340764628  -10.36198608190721   -2.80744052358857
C          -9.03274988204415   -9.14410177085404   -3.12146560732341
C          -9.32888994611617   -8.23698241776124   -4.11798933467298
C          -8.45546755201402   -7.33723322821766   -4.77017832450091
C          -9.18538441389546   -6.61083660374344   -5.68300790265267
O          -8.65997319188723   -5.73970435425013   -6.52410306197568
C          -9.49578511267349   -5.15905657813063   -7.50538462683844
C         -10.60076848677329   -6.98705388687656   -5.55298532019245
C         -10.68270264470532   -7.98160749707739   -4.66038469142543
C         -10.69323587248367  -10.98730119691196   -3.66776786391559
C         -10.74475137394454  -10.85158327035925   -5.02175172260239
C         -11.71482539962967  -11.51105793004797   -5.81475087194497
S         -12.99596555464423  -12.43446846698912   -5.08992113237190
C         -13.61476421001500  -12.92559545603586   -6.63944042491243
C         -12.83341164568550  -12.39908813960602   -7.66303903650436
C         -11.79716770504512  -11.57495079120864   -7.20421075021278
C         -10.90848868427595  -10.79344120194077   -8.12211850111538
N         -10.94703132241485   -9.34997521837379   -7.76195322853712
O         -12.02261808085166   -8.87282720935712   -7.50112005906473
O          -9.90732862514987   -8.73738222803151   -7.81368457279013
C         -11.41033158808802  -10.86218576656318   -9.57065756601548
C         -11.79256274546265  -12.29003491786286   -9.92748060192129
C         -13.01788912154590  -12.72146961149931   -9.11899463641670
N         -13.15476674480323  -14.19625576666003   -9.28677036711027
O         -12.22568301666907  -14.88006387636346   -8.94919088263081
O         -14.19298865249617  -14.60161256151484   -9.75682818413105
C         -14.75835334373418  -13.75035748709199   -6.73621706939996
C         -15.47991848504182  -14.19617164712542   -5.67456610893479
C         -16.62780043361134  -15.01802448157128   -5.78854641417516
C         -16.96524142483107  -15.88305019169022   -6.78682469505891
C         -18.38770036358831  -16.30298097538166   -6.92530664365210
O         -19.27112065193723  -16.14205024651648   -6.11477737374390
C         -18.48982561930767  -16.89017713508671   -8.27650429756638
C         -19.60145316713794  -17.29659838903529   -8.95682699015487
C         -19.45818250195532  -17.78365923118213  -10.27544952070474
C         -18.16265526565418  -17.82917222170276  -10.86837146583212
C         -18.03087116663086  -18.29999137824852  -12.19026593350280
C         -19.13137047186640  -18.71004582334032  -12.88875669960760
C         -20.41119105990429  -18.66782647339787  -12.30043011677692
C         -20.57271627159995  -18.21481274272542  -11.02134396335312
F         -21.47348153215374  -19.07518455644540  -13.00977116536687
F         -19.00369797838926  -19.15697660121722  -14.14595005447090
C         -17.02844981924171  -17.41008036773403  -10.13595688730917
C         -17.19048922417377  -16.95943483878537   -8.85400426759796
C         -16.21758948524824  -16.48711450988160   -7.87157566616619
C         -14.88678619432619  -16.81112152679345   -7.88146360425887
C         -13.99089449844101  -16.50067658338096   -6.84005545001742
N         -13.22970887576011  -16.27611906290254   -6.01040834245426
C         -14.27372609443012  -17.55714128319875   -8.91093829490070
N         -13.73330191045555  -18.16829999392097   -9.71726437425471
H           4.28302459308587   -4.66333393759512    4.13517439127463
H           2.73730570618385   -9.28617694421700    3.23222038238474
H           2.19592448495267   -3.76557501073750    3.24693610743558
H           0.59667146449370   -8.39677797248275    2.30806878319029
H          -2.50188600361287   -3.28225942905298    0.45870777174675
H          -5.80390304364369   -8.57385119790399   -0.56803042966326
H          -7.49697349796484   -6.95700443489251   -2.54731759880619
H          -7.55149011711674  -10.19138734441636   -0.32766973518134
H         -10.44082857787023  -13.61411983781597   -0.40346394167890
H         -10.41510200222815  -13.29425945347820   -2.15317348036867
H         -11.45121174978890  -12.31123539083664   -1.06960030251212
H          -7.38939858154153   -7.30876778948024   -4.67895393690918
H          -8.84885239830039   -4.53362363639660   -8.11785250963396
H         -10.27237117687882   -4.54029374103600   -7.04767778780488
H          -9.95660231323188   -5.93107782883173   -8.12646180341000
H         -11.41369947188271   -6.53311837085101   -6.08629276394726
H         -11.57514445291986   -8.44868317243131   -4.29234237037344
H         -11.41120937807360  -11.66700781586359   -3.23014352957862
H          -9.98804572201631  -10.27191323431928   -5.52945610661305
H          -9.86215516911093  -11.11020026613039   -8.05328941283967
H         -10.63459772507647  -10.49949305149071  -10.24603744184160
H         -12.28934152125731  -10.21950754992487   -9.67230652084513
H         -10.96543288543667  -12.96526160648499   -9.69443845242557
H         -12.00987113139697  -12.36109978754854  -10.99427179765479
H         -13.93883625034148  -12.27691024652009   -9.51382521877216
H         -15.10967157163911  -13.99869308758809   -7.72806763026329
H         -15.21649821498480  -13.85443074936718   -4.68211127344401
H         -17.37805709025324  -14.91138065441134   -5.01079304944176
H         -20.57714641946898  -17.24303131166748   -8.49828259507684
H         -17.05746920127424  -18.34255360023744  -12.65329596759114
H         -21.55920752557336  -18.18795403187374  -10.58555008748590
H         -16.06041835350227  -17.43694890769400  -10.60962522402716
