117
 SCF done       -241.427269312942          0.000956611689
C          -3.94999193428862  -10.67051454150649    7.87228774996102
C          -4.25027970344041  -11.99679985373906    8.00853174685460
F          -4.32680122667636  -12.54768650523646    9.22435662309889
C          -4.48535383299410  -12.79985559204683    6.87267769456550
F          -4.78159138946304  -14.09390964877128    7.03232559822937
C          -4.41274134320684  -12.26367470740396    5.61767155500745
C          -4.10198949976678  -10.90076285807397    5.44368157278627
C          -3.87023772562702  -10.08642444579277    6.59129612321195
C          -3.56882467083332   -8.71425083103248    6.44302636882418
C          -3.51135969374965   -8.17082932323705    5.18509923277968
C          -3.74472725275182   -8.99158290009201    4.04623967202655
C          -4.01932202271326  -10.32391806451338    4.15794935492653
C          -3.64679953570435   -8.17528691135106    2.82570424265087
O          -3.50231785432038   -8.56214013358535    1.69316526791711
C          -3.57761315698856   -6.75425897138350    3.31653746125574
C          -3.26017395731923   -6.80388294591298    4.73893905055773
C          -2.81344674742172   -5.77355619923284    5.51592436178015
C          -2.52620821457731   -5.89723719539785    6.89408102916391
N          -2.27659383829334   -5.94230929606850    8.01253676198381
C          -2.54094225695436   -4.46753903024638    5.04933449831740
N          -2.29762573235176   -3.39060811346801    4.73978643553560
C          -3.82972478385263   -5.65040027023827    2.57333270686703
C          -4.46711271176367   -5.70583682831678    1.29587040486885
O          -5.18911917884736   -6.78656491396121    0.96791586670354
C          -4.59054228511555   -4.78738315342540    0.26876830808091
C          -4.18812064252788   -3.44045650726645   -0.16542859207296
O          -3.49803528604529   -2.61390806902108    0.35873436947764
N          -4.82237204323789   -3.30334003854905   -1.40064689698087
C          -5.59120306998455   -4.38264305121713   -1.80501587338047
O          -6.25159622992797   -4.41773097734593   -2.80936553480532
C          -5.41050118142196   -5.37669496539593   -0.72613481489281
C          -5.76107449027701   -6.63264299171622   -0.24628176666339
C          -6.54898629064053   -7.76198420472226   -0.61919971668861
N          -7.04555818940726   -8.09993375976188   -1.83909361711230
C          -6.80128187859742   -7.45031542510365   -3.10523590651283
C          -5.38044949518242   -7.71308017122680   -3.59633028741353
C          -7.72852842229344   -9.34518055229784   -1.78742090785568
O          -8.25846522103612   -9.86441778887917   -2.74233033790115
C          -7.62349501701289   -9.74570236585500   -0.40211279768439
C          -6.90472917850755   -8.76545738216349    0.29621647177383
C          -6.82959376201015   -9.18552386590919    1.68759637236382
O          -6.34638803125456   -8.67723453607253    2.67515401871170
N          -7.50080192934994  -10.42894422137678    1.71393401549645
C          -7.62479879870448  -11.16072961450880    2.95382181458681
C          -9.01442174244237  -11.01485456133964    3.56714234067741
C          -7.98344821266841  -10.77630463143046    0.47846881524914
C          -8.69061061706659  -11.89996108820680    0.02006697325918
C          -9.10151423813035  -13.02617891130347    0.67903865044049
C          -9.72676508761155  -14.10613137184990    0.02906944152065
C          -9.70885198741674  -15.44400522886604    0.43995760501394
N          -9.19628609318451  -15.97335423448784    1.62799028464050
O          -9.22214902244363  -17.18685050391548    1.76335111872851
O          -8.72643595383990  -15.21139182036316    2.46416807278000
C         -10.19361396206601  -16.26999210898003   -0.62511985276035
C         -10.47745839675362  -15.48367386139336   -1.69899386152775
C         -10.27357621363255  -14.11236185512668   -1.33908597182170
C         -10.66039137930091  -13.01629715967916   -2.08494105289007
C         -11.23451675626596  -11.79480970386078   -1.58469912415425
C         -11.73703110429626  -11.09226865589670   -2.62908325779569
C         -11.42678413695581  -11.79634996405624   -3.84959353093034
N         -11.74469105392992  -11.28962317834086   -5.12720090326324
O         -12.35912432356151  -10.24082962473535   -5.17123713247285
O         -11.40644413024080  -11.93428104693234   -6.10366938532974
C         -10.75768506353193  -12.96878951418673   -3.55291294678940
C         -10.15818990528818  -13.88729746732302   -4.46576102536907
C          -9.01807664703884  -14.58999402952370   -4.25441037439151
C          -8.11706250667426  -14.34800512372774   -3.16813115586882
C          -7.35690809448948  -15.20121401200491   -2.43726597721671
C          -6.74575321928413  -14.66357298660903   -1.18394960750615
O          -6.54400486951452  -13.49604877998065   -0.92661155792076
C          -6.55138758343094  -15.82729734535216   -0.30901482658754
C          -6.17316990372916  -15.86117782902473    1.00435376516970
C          -6.18413497852506  -17.09419922837334    1.69214694835552
C          -6.57797870780154  -18.27561749403129    0.99780200419601
C          -6.62713329161557  -19.49701293368305    1.69650233330482
C          -6.30805980431749  -19.54186842584676    3.02433966184605
C          -5.92248452292986  -18.37254580560318    3.71108942394614
C          -5.85780959818710  -17.17318779275634    3.05923553804029
F          -5.61401976837573  -18.44954563602715    5.01016225065647
F          -6.35494488677353  -20.70226215379275    3.68837860819606
C          -6.93077451916326  -18.21576326005924   -0.36910192311954
C          -6.91584511134212  -17.00900643321987   -1.01650415573495
C          -7.23739347307598  -16.64995257953015   -2.39607856837661
C          -7.25491483158788  -17.53280886334822   -3.43930329861286
C          -7.32648124254191  -17.17349112181457   -4.79936719186892
N          -7.34386372157487  -16.92971925360630   -5.92084685046087
C          -7.09766600864931  -18.92881462150083   -3.28841727126854
N          -6.98869213273637  -20.06907781372110   -3.22968841849976
H          -3.77307354038264  -10.07142143576498    8.75183317784209
H          -4.59236459706074  -12.89102175684794    4.75884681185127
H          -3.40306968582764   -8.12368646107457    7.32965159373479
H          -4.18219209129410  -10.92398579570864    3.27572595112705
H          -3.62647787218198   -4.65532649790623    2.94513756081975
H          -4.75387177074638   -2.45977742030132   -1.95332664739853
H          -6.97975590780056   -6.37855122696751   -3.01616721918909
H          -7.52100513374625   -7.87901395934294   -3.80700335216981
H          -4.64848780356214   -7.33695435128633   -2.88500967463075
H          -5.23128549563548   -7.20851598514563   -4.54582553679725
H          -5.21662716323817   -8.77911024688509   -3.73561455230021
H          -6.88273227705120  -10.73004957763106    3.63312074177612
H          -7.37826890469628  -12.21081062047687    2.78198847891069
H          -9.20310664089632   -9.97414723849201    3.81906538255026
H          -9.07672829917037  -11.60968474279854    4.47368637827629
H          -9.78591197190369  -11.35027732738075    2.87841149675178
H          -8.86747686305600  -11.84098472354698   -1.04537315884785
H          -8.85423722937865  -13.19218719118421    1.71667923351058
H         -10.29713603444331  -17.33597959497844   -0.54823375966584
H         -10.90288997593161  -15.80673059383663   -2.62912003873947
H         -11.34551398105287  -11.56485400197572   -0.54285936213504
H         -12.27638081122489  -10.16484689726520   -2.60375343160019
H         -10.66828557100965  -14.00136006064801   -5.41428288524286
H          -8.74890845112323  -15.33834772921033   -4.98474677960005
H          -8.05830578725261  -13.31546061004512   -2.83213411108609
H          -5.89984502154806  -14.95335638283925    1.52002118308717
H          -6.92671362821506  -20.39961567731817    1.18787061133757
H          -5.57700420284830  -16.28577753929049    3.60375797126576
H          -7.23416477705480  -19.12483061733920   -0.86237037761075
