113
 SCF done       -228.509163906879          0.000892348449
C         -13.79209515805577   -1.42216428138216    0.59971517757051
C         -14.85722163811003   -2.06982571890853    1.16037258578355
F         -15.95960801616373   -1.38984505021510    1.49323718847527
C         -14.80903216825561   -3.45947485125474    1.39588824528716
F         -15.86589540047982   -4.06776478147778    1.94771213134941
C         -13.69615250385592   -4.18150517386648    1.06742713934860
C         -12.58133597400899   -3.54266376933995    0.49001409502172
C         -12.62919861770106   -2.13788717906619    0.25017657541084
C         -11.52279512958549   -1.47606406956980   -0.32845574655218
C         -10.40262556395975   -2.19586450711328   -0.65274212534546
C         -10.35824741954590   -3.59794623147391   -0.40000943480231
C         -11.41554189457452   -4.26410654388415    0.15242384725452
C          -9.04214723718958   -4.12772690095144   -0.78929657462224
O          -8.64263575347342   -5.26845463686334   -0.68477473450494
C          -8.26558404787467   -2.94877051912982   -1.25628156046662
C          -9.14005153399347   -1.78771488868633   -1.25468731184640
C          -8.85090482103786   -0.57231741108867   -1.80657798697618
C          -7.65316808973989   -0.30780159424460   -2.50691751663211
N          -6.71510617023840   -0.06983024981551   -3.12279135454385
C          -9.73213039005328    0.53029104732801   -1.79709642857662
N         -10.41373943593851    1.45271329336680   -1.80706795710461
C          -6.92358798198559   -2.99275258310342   -1.42369108001282
C          -6.19780277292114   -4.23087787634358   -1.41338973072537
C          -5.25088748415931   -4.61476142159413   -0.49153881002141
N          -4.82449023746120   -3.81319446523403    0.58293832325904
O          -3.93701065234172   -4.23692203273323    1.29584485264008
O          -5.38456639101523   -2.73656258469226    0.72993865994983
C          -4.85760749815912   -5.98130868044982   -0.73545686002426
C          -5.59333847773353   -6.45078736557280   -1.77028529242294
C          -6.44471183402343   -5.39223076788807   -2.26431080295114
C          -7.20122988466134   -5.38750714877842   -3.41296208599915
C          -7.47281887957227   -4.25362520088621   -4.24175916549701
C          -7.90377813154156   -4.69547897894469   -5.45555100502467
C          -8.01093230486730   -6.12773370417061   -5.42476838273484
N          -8.50058884811127   -6.88106537592016   -6.50321767741795
O          -8.51020086905540   -8.10210806182500   -6.41079333528525
O          -8.87610395977688   -6.27280611050863   -7.48808935761158
C          -7.65164162484126   -6.58090149903500   -4.15854211518494
C          -7.89708675374068   -7.86716860672453   -3.64455538367446
C          -8.08789349095064   -8.15171997438223   -2.32267059685734
C          -8.46882555038055   -9.41322002200211   -1.81460415842187
S          -8.20252175861196   -9.70494691505732   -0.11810078922154
C          -8.80271419511148  -11.32941165062002   -0.24345879881339
C          -9.21163964350147  -11.60510594789725   -1.54947622114374
C          -9.05252404768876  -10.52777632245293   -2.42539386851324
C          -9.62909441508647  -10.53386543764174   -3.82006920754563
C         -10.39546849643056   -9.31575712490431   -4.00489876631579
N         -11.05581802201278   -8.38840960452682   -4.09593509479381
C         -10.56852286695157  -11.73412063656013   -4.02455103452404
C          -9.90216040332958  -13.00306701203013   -3.51402682392356
C          -9.77260890630339  -12.93533614622393   -1.98421642923480
C          -8.91776567919685  -14.01652339457204   -1.53924498777423
N          -8.23815482786559  -14.87694111170519   -1.21843318322830
C          -8.87292615303328  -12.18575760654848    0.88188828639639
C          -8.52768257403728  -11.80583572609460    2.13799123495653
C          -8.60710446900930  -12.63393445894326    3.28554011986253
S          -8.27612151131771  -11.96122844232479    4.85619950615563
C          -8.60085776121512  -13.46757338715126    5.64980301934986
C          -8.93842078161113  -14.44708825071208    4.70569253482489
C          -8.93926673601680  -13.97225295747067    3.38814684977836
C          -9.26808437192197  -15.78218541480508    5.00131329528176
N          -9.56727084007981  -16.87306538314328    5.19346977279459
C          -8.48615927592434  -13.54863012270355    7.05782388265937
C          -8.68019225567811  -14.67580386679689    7.78998574242397
C          -8.52190020813662  -14.72663744760058    9.19445172516343
C          -8.45795098176572  -15.86370753720580    9.94037885221741
C          -8.70290482044665  -15.82368125559807   11.40921214100197
O          -8.71430251573610  -14.84235951717270   12.11401629132486
C          -8.98815052666206  -17.22273655161953   11.78643228859647
C          -9.39537680955187  -17.71794698871681   12.99191345817340
C          -9.64488256616696  -19.10286698074254   13.11680903468992
C          -9.47275181649184  -19.94984510708852   11.98314214903734
C          -9.73182871343561  -21.32918417760105   12.11255518396490
C         -10.13965727966043  -21.84378780861569   13.31115184361908
C         -10.30819958917408  -21.00543441352831   14.43204369792144
C         -10.06619059132198  -19.66357126648353   14.33839805130413
F         -10.71021202605847  -21.53720006133149   15.59345935349931
F         -10.38468358352122  -23.15414357380053   13.43286481909271
C          -9.04380855030959  -19.41016341798453   10.74898511548814
C          -8.79754443601146  -18.06662528865614   10.65381165160534
C          -8.32147198383401  -17.24936815447706    9.54021113558355
C          -7.66188413526041  -17.71657909434144    8.43447224910316
C          -6.96241522643885  -16.89686191504442    7.52254076491944
N          -6.33354857143879  -16.27730075219269    6.78916019100122
C          -7.49775780823482  -19.08928293556811    8.14851919765275
N          -7.34092148400309  -20.19361721234975    7.88055604830490
H         -13.84610685655532   -0.35894845879457    0.42521519299127
H         -13.67544233893525   -5.24373176618340    1.25407532438978
H         -11.58344160696547   -0.41221962807493   -0.49339162486722
H         -11.36135808202494   -5.32711287090962    0.33178534907455
H          -6.34214255534735   -2.08117332571147   -1.49274248016007
H          -4.11109369431984   -6.49639351268216   -0.16216739389040
H          -5.50272017740322   -7.41261061939939   -2.23621408776434
H          -7.23853547783395   -3.23844969870247   -3.98334057805055
H          -8.13445304808041   -4.10382139488963   -6.32165405804944
H          -8.03246517315762   -8.62949970176247   -4.39417418868246
H          -7.96207252746405   -7.36997184432314   -1.58599782621436
H          -8.83396298733177  -10.57227722580796   -4.57423144854851
H         -10.80223777180799  -11.82657681287834   -5.08558146464501
H         -11.50521573481470  -11.56528873199204   -3.48648758020409
H          -8.91039546395087  -13.10721350329490   -3.96112488631090
H         -10.48942479020569  -13.88011637214007   -3.78940566694693
H         -10.76121550596882  -13.07852063471181   -1.52438600439908
H          -9.23219464816785  -13.18917460596857    0.70808908545627
H          -8.18103436179203  -10.79338984910751    2.30210331864054
H          -9.16275977603237  -14.59954724553020    2.54387602621682
H          -8.17724746613293  -12.64052788503434    7.56001704265933
H          -8.98112898391454  -15.58336037848047    7.28936845731918
H          -8.51409257727149  -13.79173163575669    9.74400540370493
H          -9.52739543061963  -17.06152955844474   13.83851872501730
H          -9.60467919599453  -21.98506618932869   11.26553359993007
H         -10.20001702960580  -19.03559097764707   15.20524937071651
H          -8.93055193131906  -20.07129071518780    9.90473386037382
