117
 SCF done       -233.302793652586          0.000253650900
C          -3.88412655441005    4.45758723551855    3.86950017863884
C          -2.65037309700905    4.78173673594855    4.35912084258414
F          -2.46009274274663    5.94942169070387    4.98684028216978
C          -1.56393143846495    3.89541227251250    4.21111914467266
F          -0.36588384449863    4.24012885447649    4.70155712774235
C          -1.72665238081611    2.69751780052431    3.57386494190463
C          -2.98559981433383    2.33496414318240    3.05626668926477
C          -4.08565252909895    3.22898683675898    3.20769910330270
C          -5.35895383836552    2.88533299929758    2.70108105057954
C          -5.52900331430199    1.68222000380461    2.06564915416168
C          -4.42380369183446    0.79796849394283    1.91675186545631
C          -3.18071259986974    1.10612993510326    2.38861350705938
C          -4.85764196765819   -0.40924155025382    1.19461906363692
O          -4.15417158309463   -1.24643680562752    0.67846519641282
C          -6.34182876063392   -0.27168550610957    1.05057705362040
C          -6.71272811217116    1.06718001965422    1.47276182112063
C          -7.95112284265287    1.64371418085891    1.37773716833503
C          -8.25633723056507    2.94565884429709    1.82964760039845
N          -8.56749668962908    3.99663123358663    2.16964534335577
C          -9.08443794603115    1.03446190164531    0.79858720508272
N         -10.04210537048221    0.59715385462435    0.34089179086131
C          -7.14728029032953   -1.24843391294021    0.56105741132838
C          -6.74675518971339   -2.61254906063656    0.48246519958723
S          -7.37948671723375   -3.68105240397990   -0.74574336763783
C          -6.53182918639416   -5.06415104024112   -0.09960325439073
C          -5.81011368315260   -4.68830862272424    1.01638425416946
C          -5.93905772514771   -3.32455324336928    1.34859255762314
C          -5.25560459394887   -3.04257278858550    2.62004665271917
O          -5.18276557779137   -1.99042082854307    3.20637877744682
C          -4.67203998492804   -4.36843613934932    3.07469612892832
C          -4.82350959207544   -5.32898098076742    1.90451853812838
O          -4.18511156493020   -6.32757064481349    1.70996372718058
C          -6.68188150982560   -6.40754523299254   -0.54379077019324
N          -6.87805276150315   -6.85206977829979   -1.82551175107892
C          -6.86270855244549   -6.04998045273306   -3.02459982723547
C          -5.46801030771910   -5.51243549528920   -3.33059176868808
C          -6.94578708109287   -8.26055446383195   -1.87488665067000
O          -7.09385542849607   -8.88305507205528   -2.90851509467065
C          -6.82682380808509   -8.67654826319883   -0.49669778241533
C          -6.66846398403269   -7.51088456925732    0.29370142277259
C          -6.65401864536918   -7.90439241694202    1.68866466837332
O          -6.62723801730488   -7.25561029901799    2.71306147689106
N          -6.74674050787762   -9.30477770956833    1.64558425528935
C          -6.65796413864686  -10.09228507587738    2.85285772303457
C          -5.26856776271517  -10.69750501164184    3.03472837398038
C          -6.84112592410993   -9.77913963765946    0.35982812523123
C          -6.91492461051630  -11.16016982547733    0.04818208303103
C          -7.00434710240262  -11.60255187874426   -1.23053617301245
C          -7.06292886820030  -12.95370720433072   -1.67132283744049
S          -7.69677353179206  -13.14519463039607   -3.28419181431711
C          -6.72281178426914  -14.18851852195184   -1.11595855092843
C          -6.04268748150548  -14.42200934778506    0.17733140870563
O          -5.71079976230699  -13.54592950162573    0.95915078629896
C          -5.76758421370047  -15.82572947478531    0.43149264355337
C          -5.15250007970492  -16.39352781343874    1.52755345170542
N          -5.10670845207044  -17.73450041133198    1.35233910605765
C          -4.59436708244867  -18.68007039972716    2.31231916617493
C          -5.68829910318621  -19.12498818755547    3.28065116775358
C          -5.68947336941016  -18.05800844810805    0.17429516344371
C          -6.11275547321340  -16.89844814657406   -0.43844732817602
C          -6.78891908507753  -16.69788733333202   -1.70367824195945
O          -7.14213041605282  -17.58996771761565   -2.45388808180312
C          -7.00190953568061  -15.26627959412640   -2.00110811236876
C          -7.55013679424287  -14.86940925780122   -3.20970875283008
C          -7.88668873778627  -15.70542473540686   -4.31389784534158
C          -8.90471173231639  -15.54348013551224   -5.19256961552588
C          -8.86856014480265  -16.23336448544354   -6.51598205671707
O          -8.12639203018501  -17.12389463478375   -6.84980192618348
C          -9.88046846768769  -15.53647445024944   -7.33682865154531
C         -10.16358645420790  -15.69733761974015   -8.66276931574341
C         -11.16213383496588  -14.89221288353598   -9.25465932095691
C         -11.84504258857892  -13.92634829902333   -8.45896816142127
C         -12.83418090216831  -13.12047048706896   -9.05838256819937
C         -13.13333443146519  -13.26853112731286  -10.38342743002903
C         -12.45851487202498  -14.22516486794272  -11.16894767130622
C         -11.49369336122845  -15.02070931880071  -10.61771792099824
F         -12.77177541424979  -14.34706802222419  -12.46553924538842
F         -14.07395723736361  -12.50300595593053  -10.95111368386345
C         -11.53463525155426  -13.78563525615353   -7.08749685953809
C         -10.57125951325311  -14.58543498282414   -6.53220195017344
C         -10.07607588020632  -14.68703877288736   -5.16297839313511
C         -10.73889022578470  -14.25709236272459   -4.04597369568338
C         -10.36561684441826  -14.58980576534937   -2.72639266713227
N         -10.13342582703078  -14.86398574381287   -1.63637947906316
C         -11.93092628802551  -13.50315598757851   -4.08556316469497
N         -12.89614688176847  -12.88303117982771   -4.06623456407121
H          -4.70482752437567    5.14704201616614    3.99206026782653
H          -0.88550995776702    2.03040215928219    3.46859969735547
H          -6.17004129822301    3.58320340147018    2.83247338576405
H          -2.36080181533278    0.41605569820360    2.26210022220216
H          -8.15769387499462   -1.02564792865421    0.24439679567795
H          -5.26028055493656   -4.75848105093488    3.91040064509892
H          -3.64111140552878   -4.27413253100138    3.41717813262297
H          -7.57936473914281   -5.22903224794672   -2.92502835722430
H          -7.19262938328619   -6.71314692050152   -3.82918831413646
H          -5.11226965127535   -4.86914878721084   -2.52878816306528
H          -5.49058977649784   -4.93799192596294   -4.25214449312478
H          -4.76789064877237   -6.33580789135199   -3.44930266587483
H          -7.42350731257360  -10.87245899974981    2.83953907887726
H          -6.87102733990984   -9.40032304453394    3.67275636242377
H          -5.06243634544516  -11.44268346011071    2.27097760450627
H          -5.20538674378901  -11.17341386588298    4.00941812949390
H          -4.51561224534706   -9.91487232845092    2.97886088465618
H          -6.87539113877590  -11.86332365811323    0.86290078617767
H          -7.08878883872716  -10.86970411277174   -2.02575949796622
H          -4.74913220310461  -15.91780893464609    2.39943780908994
H          -3.77677036250947  -18.20745354061381    2.86247525210333
H          -4.19920403458007  -19.54393710016418    1.77196000367932
H          -6.08324808414800  -18.27075036988481    3.82510578517648
H          -5.28443270466455  -19.83737219840236    3.99415842674452
H          -6.50451025864992  -19.59708174767586    2.73936385138491
H          -5.76440756399475  -19.07134130864144   -0.16698500631841
H          -7.22144419510035  -16.54395185656682   -4.50058882635181
H          -9.63248514380283  -16.42910987135104   -9.25219688895063
H         -13.36244315024498  -12.38604707510325   -8.47070933815842
H         -10.98638215831556  -15.74775977384041  -11.23230621663821
H         -12.05882699512042  -13.04078600522573   -6.51022940607328
