116
 SCF done       -245.044270230934          0.000514956648
C          -3.50014855494293    3.63874783864745    0.84499377385313
C          -3.95960182448388    4.34319419510157    1.92190158093884
F          -3.88709842594873    5.67975450141956    1.93278179579595
C          -4.51459317325678    3.67514876395337    3.03299856716989
F          -4.95611945026866    4.39228384158440    4.07372322909972
C          -4.60172344948832    2.31132606252207    3.05145146350705
C          -4.13610587730550    1.55648000368192    1.95701966989945
C          -3.57648756519297    2.23084885023919    0.83221736355478
C          -3.10740267751133    1.49555619690398   -0.27884459698770
C          -3.19810157236837    0.12692193956124   -0.26874176849287
C          -3.75150903383712   -0.53811075609627    0.86204080647834
C          -4.20892662678796    0.14616825325859    1.95165267448356
C          -3.71826038764773   -1.99488885867533    0.64591370382946
O          -3.99402921434389   -2.86462144537441    1.43470636518749
C          -3.13477772747585   -2.17722274371305   -0.72206861804321
C          -2.81769745128231   -0.86595938333379   -1.26596500330099
C          -2.32518970427951   -0.60668701810425   -2.51503579555034
C          -2.06919415096764    0.68901915458752   -3.01442652228761
N          -1.83479873827994    1.71462058600580   -3.47204827208756
C          -2.01899645925414   -1.59421789725955   -3.47625264292612
N          -1.76148001861296   -2.34882268234797   -4.30166505495670
C          -2.88026785956910   -3.39356161390699   -1.24915262034464
C          -3.39265236567482   -4.61574624902531   -0.68176513675115
S          -2.29070588926735   -5.86346489331003   -0.21759875336377
C          -3.58195884749475   -6.89239331179550    0.32723812875450
C          -4.80596785086406   -6.28988553629710    0.10097974879398
C          -4.69720588720518   -5.00510221543337   -0.47434320330732
C          -5.90981286537432   -4.27735914418164   -0.98043917377508
F          -5.80978445833040   -2.90898588625923   -0.88964452577179
C          -7.18475612462787   -4.74286525854095   -0.26632531651942
F          -7.16774428838500   -4.39548634030016    1.05584166771218
C          -7.27280783685637   -6.26854092553331   -0.37627757962810
F          -7.18246456680507   -6.60063099184481   -1.70904314916765
C          -6.13036400350256   -6.90647536213491    0.41831529465605
F          -6.12486622417367   -8.26418349983613    0.16733208667216
C          -3.32226898415121   -8.14370235811996    0.97152163508042
N          -2.31769817639652   -9.00684294720974    0.61277512773466
C          -1.39751777502762   -8.90330982182302   -0.49498321380837
C          -0.03321512237252   -8.38710685969961   -0.04617098314564
C          -2.29953561346065  -10.15996686950566    1.43064612042561
O          -1.51749302153520  -11.07407675283665    1.28194594033822
C          -3.37243227433689   -9.93844784921095    2.36708124950413
C          -3.98645405531414   -8.69761974173108    2.06175076374432
C          -5.02932303482924   -8.48911574883359    3.04190092985873
O          -5.80033573111955   -7.56782870854724    3.23283101795167
N          -5.00034806239148   -9.63869109112961    3.85173753848269
C          -5.94315342771153   -9.76889326520060    4.93722073551337
C          -7.16220562561640  -10.59289284356902    4.52825906310526
C          -4.01047229946650  -10.51062834731364    3.46264723397619
C          -3.61113151225485  -11.75340070745080    4.01703678944986
C          -4.20058252153752  -12.50640908805701    4.97835111275846
C          -3.64785763880943  -13.72842786070665    5.44360578131009
S          -2.14020169276075  -14.33248375291704    4.83361539941311
C          -2.21168791089092  -15.73765259108730    5.85647292975010
C          -3.37089832792326  -15.72677656764294    6.61662989682685
C          -4.16620996699647  -14.58981753261174    6.40300263716167
C          -5.48367786029892  -14.39886032647921    7.09862733852884
F          -5.70773974071418  -13.08404984521327    7.43697189571796
C          -5.59021311144367  -15.25836937837442    8.36625055312316
F          -4.74369598859981  -14.79809837912087    9.33833424918523
C          -5.19781266469843  -16.69918320243154    8.02479852706366
F          -5.95846898214650  -17.10452239992093    6.95509181699730
C          -3.70631513472611  -16.74028374287600    7.67013969588783
F          -3.37945218893284  -18.01714471654476    7.28259905612418
C          -1.20483222213820  -16.74210564197396    5.78838938231277
C           0.10103093936212  -16.57043605257822    5.46316192222305
C           0.91805537688157  -17.72319200866207    4.98054435369992
O           0.64093961652291  -18.89430669930379    5.06523175009732
C           2.09464001654036  -17.10801524591736    4.33068045287672
C           3.09101526770274  -17.70863081696602    3.61600905085150
C           4.11596456738110  -16.90958606646334    3.06126664086806
C           4.08414873699647  -15.49676830952542    3.25049685663484
C           5.10605126966156  -14.70627027354215    2.68703893328978
C           6.11505200305684  -15.29057103914950    1.97444462305700
C           6.14758837075436  -16.68791185550728    1.79058753513043
C           5.16953041188646  -17.48139154542898    2.32139870166098
F           7.14887813670473  -17.23300132121035    1.08771081782150
F           7.08659127108568  -14.53851227216911    1.44216232721286
C           3.04425048980435  -14.90262711977699    4.00062631196275
C           2.06941350894362  -15.69878649050511    4.53934764737854
C           0.92298257414026  -15.37795370046255    5.38093616142034
C           0.80004643733296  -14.26753631390787    6.17225433611553
C          -0.18237017529800  -14.16163750754006    7.17880338357081
N          -0.94374295712091  -14.08504998954403    8.03422384889296
C           1.68872549959944  -13.17411969621580    6.13389312011342
N           2.38080999611906  -12.25900272078449    6.12595206121721
H          -3.07985107263780    4.16559081902781    0.00255445239459
H          -5.02863430106221    1.81506778760601    3.90881862859949
H          -2.68511684435426    2.03416639815014   -1.11181000528975
H          -4.62551650949643   -0.38428698521827    2.79419372245723
H          -2.23990738947568   -3.50389567784152   -2.11531739350409
H          -6.03274585876866   -4.48651530191980   -2.05588279514859
H          -8.06012931949790   -4.25336046548288   -0.71175235967857
H          -8.23768253643893   -6.64978355473082   -0.02391841399845
H          -6.33805278751552   -6.79935131264004    1.49862159308944
H          -1.82743978040738   -8.26302167046729   -1.26716491153728
H          -1.27950146637081   -9.91475197015996   -0.89592406267861
H          -0.11864822918054   -7.40440582352021    0.41131404856453
H           0.63142933489331   -8.31822485798933   -0.90218668454272
H           0.39696868127448   -9.07551181135150    0.67647640304042
H          -6.26430422221374   -8.75189767444454    5.18161661685084
H          -5.44206794530276  -10.19453479532216    5.80897219153881
H          -7.70468390683085  -10.07972629544451    3.73820423614548
H          -7.82295301289585  -10.71892589824530    5.38129938866660
H          -6.86993454645315  -11.57351503086585    4.15894546028840
H          -2.70254672301345  -12.13095884500627    3.56008954530369
H          -5.12643423019541  -12.20819020322963    5.43892088207265
H          -6.30897438844207  -14.67948825551478    6.42476603354367
H          -6.60549347859969  -15.19780227072131    8.77686916538312
H          -5.41283842223514  -17.39165001644500    8.84649655510869
H          -3.12320724571236  -16.53453920832012    8.58089298353036
H          -1.52776409788417  -17.76778425503946    5.93197675426483
H           3.09827411995594  -18.77883279275486    3.47617224691946
H           5.09747991741735  -13.63595373533626    2.82138138533811
H           5.20881928175961  -18.54883935179928    2.17084560275824
H           3.03531744171778  -13.83120913544631    4.12333748646667
