119
 SCF done       -245.280072041843          0.001593767279
C         -13.94204335188139   -0.48280792060294   -3.48524869618843
C         -14.81444362415220    0.17901300038256   -2.66761425890536
F         -15.12996287956552    1.45638940915177   -2.91320856956216
C         -15.39144325844097   -0.47139628879132   -1.55782010747989
F         -16.24130212797282    0.20312451394048   -0.77331875251771
C         -15.08748765719479   -1.77497205201246   -1.28088427141567
C         -14.19010372775372   -2.48374146457680   -2.10306650616628
C         -13.60796365499932   -1.82751736385649   -3.22699022310746
C         -12.70959366704098   -2.52003463780422   -4.06962563457557
C         -12.40112648998095   -3.82628227431979   -3.79350403428549
C         -12.97588329483370   -4.47073339628297   -2.66158800369661
C         -13.85114572326304   -3.82864676331924   -1.83356186485976
C         -12.47430335744357   -5.85531551651837   -2.57306317948853
O         -12.75507886243106   -6.67980503738850   -1.73377027521594
C         -11.49416448171770   -5.99067696589054   -3.68886525291279
C         -11.53769966307113   -4.77712457237811   -4.48093172124033
C         -10.96071714503007   -4.59951570842136   -5.70954683995689
C         -11.05366231721974   -3.41160116483895   -6.46554744760959
N         -11.08525047488997   -2.46782269260208   -7.11775517049498
C         -10.24558645531364   -5.59424921357560   -6.40404672511768
N          -9.67442717161078   -6.35704036693546   -7.04481983914553
C         -10.59863063915100   -7.00474393731842   -3.80059585939685
C         -10.64302433382047   -8.22880602436095   -3.06531113412795
C         -11.72844573070673   -9.04689819656488   -2.83994664019427
N         -13.06030606945756   -8.86820924135507   -3.30683545622545
O         -13.93296742481691   -9.47291647527391   -2.73036395176868
O         -13.23210392216574   -8.13928551296121   -4.26591770764573
C         -11.31128669787684  -10.23287350816677   -2.13696550602467
C          -9.96871359793411  -10.18239158463116   -1.97199399296364
C          -9.47494557380894   -8.93718192563411   -2.52050431915716
C          -8.20332484456021   -8.43000263789284   -2.43607928883027
C          -7.83011075650204   -7.04692763650296   -2.51579119758213
C          -6.52109721185313   -6.92795724277918   -2.18458373648572
C          -5.98262357556385   -8.23532048070394   -1.90430320803594
N          -4.60985127938716   -8.39351152073431   -1.62243645298790
O          -4.21829216425962   -9.44248006515629   -1.13939491904665
O          -3.88650297352612   -7.44619451155147   -1.86972056033133
C          -6.97778484157951   -9.18863213536186   -2.07368272725465
C          -6.93804057605692  -10.59949738306997   -2.15902337463161
C          -6.14216256546493  -11.47178578568795   -1.48060219567756
C          -6.21418073385645  -12.87523855291862   -1.64865844820655
C          -5.38956050709134  -13.81081931071273   -0.86556018902948
N          -5.62860120684512  -15.06458768992730   -1.09676739481227
C          -6.61055791157257  -15.08118478702535   -2.04376203151895
C          -6.98349100241594  -13.71122051341887   -2.44240163248924
C          -8.04848225907436  -13.76949533248142   -3.41222256733001
S          -8.89810721987848  -12.51103724838695   -4.07686487500721
C          -8.29837638696648  -15.17331969792420   -3.59934387515511
C          -7.41773322311376  -15.95776816123515   -2.72015516924751
N          -7.73205788641866  -17.28523040624588   -2.78234035072095
C          -8.75877564504206  -17.36578890475125   -3.57486908234977
C          -9.18455059428550  -16.08270218922445   -4.14737552855425
C         -10.27580131241188  -15.86357123665586   -5.02585037888136
C         -10.26477415200749  -14.79004638100934   -5.85647152791854
C         -11.29553797522794  -14.19127090037648   -6.62409899750362
S         -10.74996318276657  -12.78854442094115   -7.49990761153005
C         -12.68105502323696  -14.33371363303016   -6.72668300915321
C         -13.47751369770890  -15.45910915257966   -6.18822668966160
O         -13.00080907432754  -16.44235292649030   -5.64597981605101
C         -14.90184621809914  -15.30351172582101   -6.41270429097938
C         -15.93482884883800  -16.13257188857316   -6.02712329258375
N         -17.10111368091040  -15.59859561650201   -6.45682461686642
C         -18.39817275408230  -16.20887412280344   -6.30389066391385
C         -18.69721097697197  -17.15457739781446   -7.46532164237656
C         -16.85444718365793  -14.44823289333422   -7.12553091660895
C         -15.49505333717558  -14.21993321578347   -7.11998926793758
C         -14.73523960012083  -13.12429507513630   -7.68796102666451
O         -15.22752929223668  -12.19395295236309   -8.29832527478370
C         -13.27766412349012  -13.26828436790138   -7.45497016269714
C         -12.36413532521708  -12.32661904529532   -7.91587357107757
C         -12.62695462767677  -11.16089686697486   -8.68770264212148
C         -11.85124201992171  -10.05576453497964   -8.80768406390189
C         -12.04001722405700   -9.14726513903131   -9.98282957904990
O         -12.99197858387360   -9.10923595930045  -10.72141036137942
C         -10.77746973879454   -8.38788836577733  -10.07933540612304
C         -10.37964353841269   -7.50618332611249  -11.04302782822570
C          -9.10423979744782   -6.90737236972541  -10.93978439417292
C          -8.25541226390768   -7.24768480543567   -9.84589680564095
C          -6.98414777034797   -6.64636230824950   -9.75279510723593
C          -6.57555824908704   -5.74863589731772  -10.69826158105926
C          -7.41517421848566   -5.41417573166502  -11.78035436212645
C          -8.65338923859855   -5.97971368099796  -11.89923895033175
F          -6.98576676232728   -4.53511680095532  -12.69534659412806
F          -5.36768842328734   -5.17731695076240  -10.60788645348807
C          -8.69342112061704   -8.16114830853370   -8.86232690158008
C          -9.94346352129815   -8.70952733933836   -8.97007873351302
C         -10.67698510543233   -9.60050744934215   -8.08285179799993
C         -10.43097018901740   -9.76002059756545   -6.74613780427701
C         -11.30492474414242  -10.41435501303615   -5.85395310845564
N         -11.97665713368950  -10.90538106421656   -5.06273100263743
C          -9.30195939201546   -9.25988367998571   -6.06878352442824
N          -8.40723731215912   -8.92437242635105   -5.43193912036484
H         -13.51146508842549    0.02875513285323   -4.33184628596258
H         -15.53793526406946   -2.25815811509289   -0.42809997968045
H         -12.28153228111696   -1.99753812278129   -4.91003469477053
H         -14.28015407718509   -4.34105453543347   -0.98601070964301
H          -9.75735892615833   -6.90299558496219   -4.47692152167776
H         -11.99079550732153  -11.00519951500224   -1.83262900095554
H          -9.37052208960693  -10.88174313413408   -1.42180443722820
H          -8.51188803479111   -6.24006772710915   -2.69879759158360
H          -5.93789633093475   -6.02876201905713   -2.11451956493934
H          -7.66386020021006  -11.01800680882073   -2.85042283884810
H          -5.44346390842110  -11.11617703371518   -0.73811121059591
H          -4.63778073236778  -13.51038274736426   -0.15652599680529
H          -9.21233166694289  -18.31606685962085   -3.79701003314599
H         -11.11276380193715  -16.54586911284601   -4.99722748067364
H          -9.32593564048395  -14.25259191682341   -5.93391919161203
H         -15.89652731931993  -17.04820457856682   -5.47094334720788
H         -19.15104800280465  -15.41810266722380   -6.26163371772752
H         -18.41454344163139  -16.75877910030995   -5.35960627010480
H         -18.68129953685882  -16.61372748660058   -8.40848247209241
H         -19.67880113995924  -17.60110720019088   -7.33620071518888
H         -17.95558142569286  -17.94860027937628   -7.50933284774882
H         -17.63830839410045  -13.85659892341413   -7.55503212978272
H         -13.53304236828092  -11.18332106593709   -9.28715998343361
H         -11.03080301669562   -7.26351593277007  -11.86890425109917
H          -6.33287508514369   -6.88523535764711   -8.92671605052313
H          -9.28475481425193   -5.71042696983931  -12.73145346627043
H          -8.03559642891852   -8.40278169550346   -8.04323458644304
