108
 SCF done       -215.237198332398          0.000644415888
C          -5.25921228016008   -1.26538925132016   -0.98559533706090
C          -4.35145406019111   -1.70984989588398   -0.06593956076978
F          -3.58533208269069   -0.83536353740948    0.59759198691557
C          -4.20553885890637   -3.08766513243644    0.19381655269167
F          -3.30296666165906   -3.49022205782923    1.09533303396758
C          -4.96700622196038   -4.00413989073356   -0.47509902205985
C          -5.91101619456543   -3.57673948396980   -1.42813040537806
C          -6.06619036081121   -2.18348234343025   -1.68615863011009
C          -7.03372947317694   -1.73095714713296   -2.61204322724417
C          -7.84258835103492   -2.64181161490036   -3.23941607401295
C          -7.67997530539251   -4.03056326548738   -2.97564074391539
C          -6.73163749112976   -4.49970852472500   -2.11262329223178
C          -8.73574556076683   -4.78296616674190   -3.67255644092555
O          -8.79724480801462   -5.98019174850043   -3.84659952613242
C          -9.66059393674069   -3.74512170590865   -4.21179323673247
C          -8.99583068963921   -2.46226065923962   -4.11916994964620
C          -9.41224860629696   -1.27719705448032   -4.66452381422336
C         -10.58856280247792   -1.11162321988659   -5.42663810187960
N         -11.54892642641942   -0.89496088317058   -6.01589997196750
C          -8.70476533529228   -0.06364701648403   -4.53232080149438
N          -8.16841715995649    0.94815747513537   -4.45844888731897
C         -10.92265185061338   -4.02933963551147   -4.66325613795907
C         -11.64360351981437   -5.15828226602931   -4.22555885062903
C         -12.56492376692157   -5.94700648793705   -4.90846507970470
N         -12.97015659119465   -5.77242263760273   -6.24557426202477
O         -13.85280215293464   -6.49674696433827   -6.66500751222855
O         -12.42754376591922   -4.89374793213724   -6.89392803202379
C         -12.97695812596717   -7.02344336769084   -4.07115023738732
C         -12.29640235077614   -6.93954629563305   -2.88434693624428
C         -11.47655813691591   -5.78181168339743   -2.90106190172078
C         -10.73322896956180   -5.19437499970408   -1.87555710888469
C         -10.69290341908623   -3.79446950609069   -1.60865392881357
C          -9.85254279819908   -3.55647026362002   -0.55883425856206
C          -9.28183262081802   -4.79428491892369   -0.14506787185358
N          -8.23299930864669   -4.85734533399182    0.77301898133175
O          -7.76956992811082   -5.94963090507901    1.08413390433630
O          -7.79531039862354   -3.79861701982099    1.20213134104473
C          -9.83062295888848   -5.84072432581297   -0.91416682174342
C          -9.42183964707576   -7.18129169155331   -0.86330756404018
C          -9.66218869078113   -8.12874111006747   -1.82568981011329
C          -9.34027640412769   -9.49410917432082   -1.82194371959165
N          -8.67334844561439  -10.27460338596182   -0.90663491682133
C          -8.10435970481801   -9.88917614276301    0.36558593158795
C          -9.17105380213924   -9.77226825853749    1.45111227136087
C          -8.60291199919018  -11.62015652171783   -1.31610021231041
O          -8.05015516163563  -12.48662860948908   -0.67222718228507
C          -9.29698164892163  -11.65557876653102   -2.59091034300188
C          -9.72485803924876  -10.35094673183741   -2.87018527842439
C         -10.46794714043986  -10.36444095762669   -4.11419453173341
O         -11.06340493450820   -9.50309704103044   -4.71852740302930
N         -10.41187856947881  -11.71669782047798   -4.52504284127876
C         -11.00558881137169  -12.13674915618291   -5.77258815894098
C          -9.95607245210343  -12.31730964817114   -6.86594232779202
C          -9.73159699263122  -12.49887809026830   -3.63131125641824
C          -9.58213916897488  -13.89765099788999   -3.77486336482518
C          -8.89524355778940  -14.65074563336551   -2.87494850686552
C          -8.73302437076659  -16.07116979174703   -2.89934865865787
C          -9.31892307483715  -16.98179693196738   -3.77633235123972
F         -10.14190140994294  -16.55406532021586   -4.74971046488067
C          -9.12302842261580  -18.37125160407286   -3.70137768393602
F          -9.81779319600638  -19.11933076008137   -4.57252345862738
C          -8.32047033056300  -18.97942685424989   -2.75002850401103
C          -7.72579220596411  -18.09313496235804   -1.82999213982891
C          -7.92088668074686  -16.68214632663244   -1.91072292645123
N          -7.21839783905940  -16.12875249772731   -0.91638275359160
N          -6.66255659222320  -17.13659131859753   -0.30835084072971
N          -6.91217320171304  -18.32300226902662   -0.78771404367601
C          -5.82155276971666  -16.94024647762997    0.83101098690141
C          -8.11384841962986  -20.41959573268929   -2.67064495620949
C          -8.15390095518169  -21.08817462820030   -1.46077119585875
N          -8.01197442823262  -22.40781110864495   -1.32507931530268
C          -7.82764568968212  -23.14705581434972   -2.38300432091781
C          -7.74065236572568  -22.60406600732276   -3.68445664352869
C          -7.85868825434725  -21.19483973702329   -3.83196601398828
N          -7.66967339062858  -20.61770380376863   -5.03582016657535
C          -7.46440771723089  -21.40466018359245   -6.05236947365094
C          -7.42881570601749  -22.81292363962130   -5.91721046632429
N          -7.53568744441984  -23.39437642696552   -4.75693306795756
H          -5.36104923100697   -0.20675522341762   -1.16669404446889
H          -4.85321818808602   -5.05444276618206   -0.25660998926075
H          -7.13010436415183   -0.67026048210453   -2.77990673811112
H          -6.63261747765000   -5.55913466049769   -1.92739969893646
H         -11.42336617844790   -3.36574503187735   -5.35992028225733
H         -13.68861633288175   -7.77134148895715   -4.36293736334000
H         -12.43379115058572   -7.57272347102874   -2.02839977898864
H         -11.31247738731259   -3.06981672086084   -2.10245403107813
H          -9.62929128450847   -2.61167735255413   -0.10088993471797
H          -8.82130856417838   -7.42332120070059    0.00117654952973
H         -10.13375014605356   -7.81637390019355   -2.74718001529975
H          -7.54403952173849   -8.95898877667641    0.25647162005304
H          -7.40416370078323  -10.68629261045458    0.63236857690983
H          -9.95048538483936   -9.07035990292176    1.16413491374710
H          -8.71418312952912   -9.42455442277753    2.37282848257103
H          -9.62796369700205  -10.74266332886478    1.63015250700045
H         -11.69919033761230  -11.34113532614328   -6.05834447967515
H         -11.57081400336604  -13.05983767158790   -5.61940624811087
H          -9.42503602578187  -11.38302901520869   -7.03040490704964
H         -10.44209382528568  -12.60729200778379   -7.79293530614134
H          -9.23476650400455  -13.08476305261539   -6.59431502901685
H         -10.05128171233009  -14.35179968889607   -4.63316026663972
H          -8.40857533181532  -14.16841808441670   -2.03605588392027
H          -5.81221919338888  -15.87639483604551    1.05591554230919
H          -4.81215167643257  -17.28945262901383    0.61210374258163
H          -6.20950114512755  -17.50531307765086    1.67838641353912
H          -8.32378329572620  -20.54475153990454   -0.54239056154815
H          -7.73514944242928  -24.21430014405060   -2.23885697065152
H          -7.30576351733725  -20.92913951912621   -7.01054017536095
H          -7.28482528681447  -23.45496246535043   -6.77517880804967
