112
 SCF done       -232.533353009276          0.000553408675
C         -15.27527633185775    1.03673405339019   -5.53763464349654
C         -16.38339939118169    0.92110549868604   -6.32869133858984
F         -17.01417834279813    2.01600383914499   -6.76789428110641
C         -16.87651845858675   -0.34965960343252   -6.69162288793525
F         -17.96434764279962   -0.43155663288270   -7.46639088282579
C         -16.25400569303080   -1.48668940191228   -6.25824141186066
C         -15.10912874076280   -1.40143341686796   -5.44177397814831
C         -14.61040952044195   -0.11678570217910   -5.07379435509273
C         -13.46392242352008   -0.00609326238525   -4.25711106128045
C         -12.83527462807100   -1.14476233253508   -3.82357279870449
C         -13.33630759605955   -2.42556662575965   -4.19922465801334
C         -14.44527268540562   -2.56112169956108   -4.98463974527237
C         -12.47954858634697   -3.47507465912575   -3.62365482235332
O         -12.67639298298052   -4.66442655144312   -3.56514918783023
C         -11.31102468738456   -2.73545264237470   -3.04522221460448
C         -11.64795426326116   -1.31964966678745   -2.99980591840598
C         -10.99588568768313   -0.35638190499288   -2.28432412707696
C          -9.91030414023343   -0.63303163833306   -1.42498315024446
N          -9.04829565042382   -0.83514007205895   -0.69506184899565
C         -11.36616966384602    1.00625219312634   -2.26893970044814
N         -11.62394346394569    2.12287611392587   -2.22652226965380
C         -10.12670636188148   -3.32164800749322   -2.79319833866599
C          -9.81543067144466   -4.69763487429903   -3.10173426263715
C          -9.87400859277634   -5.30569158919167   -4.33307231812117
N         -10.33164475315801   -4.77590071068960   -5.55990954071072
O         -10.18759037095377   -5.46859942513381   -6.54699860749420
O         -10.83216570724587   -3.66152713686092   -5.57571545710542
C          -9.25209913723606   -6.61442304882221   -4.25923755651973
C          -8.84713765547539   -6.82578827529119   -2.99259889961006
C          -9.21970354997460   -5.68187697297822   -2.17993078158274
C          -9.11962185431243   -5.53319852269959   -0.82206384440200
C          -9.34410960520571   -4.31713186043430   -0.08205141447117
C          -8.74748178374875   -4.42132721190929    1.12801923395064
C          -8.18934807663944   -5.74616870264476    1.25862789446487
N          -7.54124826214748   -6.17238277423856    2.43742766568953
O          -7.46911071446120   -5.37129605693224    3.34895763978523
O          -7.08380550188088   -7.30270957349938    2.47722332093164
C          -8.48561219980269   -6.48867251420039    0.12902539820523
C          -8.28279069089393   -7.88476964215963   -0.01314906170685
C          -9.10187299705914   -8.73241877362446   -0.68712776600797
C          -8.89396575979972  -10.14987100197686   -0.79980998163368
C          -9.91854692595887  -10.96070903806072   -1.31512795194320
C          -9.76047559566588  -12.32193206390087   -1.44099664968060
C          -8.54751448243801  -12.92298709189671   -1.08911473464104
C          -7.50781667758273  -12.11507970483352   -0.59435186701585
C          -7.68451422981494  -10.76438993819198   -0.43481488097567
C          -8.28545342006845  -14.34315771634802   -1.17401555503596
C          -8.94185186893480  -15.39784915672268   -0.59693864362442
N         -10.17038655527986  -15.40061702234130    0.10457815287873
O         -10.89338299298881  -14.42599737689612    0.01616302445863
O         -10.42465584457114  -16.39246240149383    0.75975950059912
C          -8.08475584786351  -16.57180848017826   -0.63241997592269
C          -6.91538214870332  -16.24551711479364   -1.22326125804174
C          -6.99589870375809  -14.88359701027653   -1.68391049480929
C          -6.20456133534652  -14.18832653403512   -2.56343812389791
C          -6.63296316050521  -12.98941187993556   -3.26395108236766
C          -5.57777805614359  -12.43202951555652   -3.89300071986687
C          -4.41400919040041  -13.23144844585403   -3.60110735113742
N          -3.12427958546922  -12.89420729709340   -4.05644421729622
O          -2.20475599249551  -13.66391698821068   -3.82031416089640
O          -2.99997431686378  -11.83945102807187   -4.64849299270403
C          -4.77118232585357  -14.35010132676287   -2.86683211281041
C          -3.82455907431586  -15.29071546624511   -2.35881128073821
C          -3.91841311812629  -16.64112537026691   -2.34836082698248
C          -2.90514723796291  -17.50332655847550   -1.84780344528433
C          -1.86741778924607  -17.25682175822157   -1.00295470561464
C          -0.76782168538766  -18.27690533812296   -0.96041485910999
O          -0.82939124282153  -19.40546117450728   -1.38264701163840
C           0.38133734525816  -17.58581937502185   -0.35312058180409
C           1.67127912577495  -18.01501863676391   -0.22225333829435
C           2.62593931404323  -17.15043881709929    0.35766112052529
C           2.22521001298251  -15.84891005383026    0.78017842460684
C           3.18535908805845  -14.98435182742574    1.34342858378634
C           4.48151020310308  -15.39411175545397    1.48511226134377
C           4.87622915751659  -16.68303476130424    1.07002250417267
C           3.96898498317510  -17.54366977305646    0.51800198263560
F           6.15183378730299  -17.05667496207712    1.22098368009194
F           5.39179206773943  -14.57400551590223    2.02086546133580
C           0.88139454914415  -15.43553190395052    0.63753118519374
C          -0.03184717198226  -16.29746318868154    0.09028444381718
C          -1.46447451438231  -16.14771305979255   -0.16037049395113
C          -2.26159906627472  -15.24000590378065    0.48690482276264
C          -3.66079123891143  -15.14381806715672    0.37566036443905
N          -4.79703084453453  -14.98141545162856    0.32892506491537
C          -1.77196603633700  -14.28600165982796    1.40781438958541
N          -1.43887012643110  -13.48631117913493    2.15948745392539
H         -14.91137891764259    2.01609678671670   -5.26870957760120
H         -16.64348035795605   -2.45049724834528   -6.54626561698245
H         -13.10169391103776    0.97710146349572   -4.00182513713068
H         -14.80580373491102   -3.54002589430163   -5.26098714004900
H          -9.29314600367705   -2.73899552502199   -2.41779743971067
H          -9.13853121527283   -7.25664729682917   -5.11114633966748
H          -8.31695971792930   -7.68343583113621   -2.63248473357787
H          -9.85449379745893   -3.45308855608253   -0.45373467843252
H          -8.68431388494099   -3.67365069115501    1.89573084601485
H          -7.47894373281370   -8.28862133082329    0.58777207681209
H         -10.00865468216890   -8.34743461631637   -1.13765912231509
H         -10.85250296365503  -10.50481859839652   -1.60838863041977
H         -10.56351702697628  -12.92392585858855   -1.83316782033379
H          -6.58014287420177  -12.57759572144417   -0.29288276509146
H          -6.87680088086839  -10.17520000441846   -0.03118942167546
H          -8.37548236374431  -17.51893404809434   -0.21885261507519
H          -6.08915939080458  -16.90422931713939   -1.37877661529625
H          -7.65057193899535  -12.65965889456683   -3.32302330102524
H          -5.55678181582254  -11.56050089993502   -4.51820546999230
H          -2.86909437658979  -14.85550394548339   -2.08591786360976
H          -4.74249163801161  -17.12334481076562   -2.85688841754183
H          -2.91542458258780  -18.51805640287095   -2.23662116202278
H           1.95994728184250  -18.99830844082364   -0.56078214957042
H           2.89955840570251  -13.99647066373559    1.66936386688514
H           4.28761421371583  -18.52544354717946    0.20460640152269
H           0.61272350200658  -14.43978062731609    0.95130168032225
