121
 SCF done       -244.556534868162          0.000765192896
C          -3.17927191828374   -2.61277085929118  -10.24064715722675
C          -2.19668835289500   -3.47741068461939  -10.63381909495023
F          -1.14400448950985   -3.02989907682587  -11.32854343449767
C          -2.27761686699824   -4.84849317335063  -10.31478650923324
F          -1.30035408196949   -5.67279133267933  -10.71322195630140
C          -3.34074532892268   -5.33565033745027   -9.60767871475072
C          -4.37074182603333   -4.47032239949410   -9.18969882733102
C          -4.28903099502638   -3.08341934519808   -9.50988098032057
C          -5.31003390067004   -2.19670454745879   -9.10016194421257
C          -6.38015712978100   -2.68295713285925   -8.39542177879280
C          -6.45998803900128   -4.07171643883223   -8.08807757520340
C          -5.48539033310954   -4.95020390928189   -8.46722970345651
C          -7.71804250270515   -4.34864831604697   -7.36927181372862
O          -8.11637549430934   -5.41363395977268   -6.95778918337404
C          -8.42944540516560   -3.04191243847420   -7.31357829012072
C          -7.55517555750495   -2.01391641516330   -7.85165767038616
C          -7.76259555039409   -0.66532545749654   -7.77486454615719
C          -6.87699168253995    0.30200178934906   -8.29607003180912
N          -6.19053350235051    1.12558642631465   -8.70425503355345
C          -8.85985087592434   -0.08333412221738   -7.10285632368556
N          -9.70868816322587    0.43227738489627   -6.52824242576368
C          -9.74002940335138   -2.93295850348982   -6.99636372684070
C         -10.54098786320233   -4.00492801941081   -6.48014385714082
C         -11.66140943725591   -4.51393284629272   -7.10069984134010
N         -12.15447587839953   -4.07010678775341   -8.33934132364228
O         -13.20134097322075   -4.54045070496968   -8.74006240368109
O         -11.49856906377026   -3.22637733047083   -8.93470829180595
C         -12.19059417334508   -5.61344590462333   -6.33341707385236
C         -11.37877625971779   -5.80891450728288   -5.26765017968633
C         -10.31947172481832   -4.82884588638060   -5.28886785930862
C          -9.35430132965642   -4.59510111400890   -4.33499465299053
C          -8.69127792747965   -3.35159555314213   -4.09423767172377
C          -7.94206635483738   -3.47104628189400   -2.96794471290103
C          -8.06124307326157   -4.80937070194363   -2.45469344875945
N          -7.27100032302793   -5.20636420977175   -1.36452434746435
O          -7.45717480674200   -6.29729921750227   -0.84258433156759
O          -6.41688308490022   -4.42278569566878   -0.98555914319720
C          -8.91365844529903   -5.54306273872610   -3.28653221529868
C          -9.23412648679729   -6.91326367069139   -3.37434610023550
C          -9.24323342906595   -7.82991194569815   -2.35709260024232
C          -9.58249015566356   -9.17947733696784   -2.56172581543522
N          -9.58982762438720  -10.11828257789836   -1.55804916247686
C          -9.19601375924160   -9.91082693690944   -0.18232665750780
C          -7.68526565750251   -9.76493067887832   -0.02534558290678
C          -9.98695606919135  -11.38104402730212   -2.01588177635227
O         -10.06755570875007  -12.36468034061831   -1.30736182410963
C         -10.25214114672925  -11.18379359686820   -3.42906614681556
C          -9.99329420417595   -9.83473853981415   -3.73553344933115
C         -10.29708038963488   -9.62986826999497   -5.13870579224546
O         -10.25507896780430   -8.64713487840123   -5.84730191921837
N         -10.71959872651565  -10.89528611577956   -5.59091799544221
C         -11.07400510126499  -11.11317109324884   -6.97308867416419
C          -9.94818692456561  -11.79721403347109   -7.74416609186140
C         -10.70286962476200  -11.82947896979615   -4.59033355137513
C         -11.12749819482164  -13.16780365453932   -4.74852254127857
C         -11.16025001511771  -14.03400870685159   -3.70393175510710
C         -11.69899418971693  -15.34086041600634   -3.76830561790244
S         -12.29813005991859  -16.06668674213271   -5.23918640697136
C         -12.90026670768005  -17.41029802677753   -4.38518055556052
C         -12.64173182076065  -17.35583960967661   -3.03920750534356
C         -13.15019765133040  -18.40874217625162   -2.11585115953572
O         -14.14622517165139  -19.03414828373855   -2.35745176992886
O         -12.44845988690948  -18.61453919029012   -0.99677712823909
C         -11.94257288128195  -16.17262749128757   -2.68968579533380
S         -11.58074370598784  -15.63551733315261   -1.02702146610718
C         -13.24855120145952  -15.42817058040080   -0.56632606081047
C         -13.70141890400993  -14.54324725556255    0.33394853925884
C         -15.08696571990008  -14.40840138986129    0.65226185447820
C         -16.17639042919305  -14.80079090581208   -0.05988009557403
C         -17.48577323327860  -14.92952673069236    0.65058805116748
O         -17.77267713404532  -14.45399701970191    1.72220906283414
C         -18.30680892359449  -15.80394447862490   -0.20998832994317
C         -19.53627622315145  -16.34368161095208    0.03618364926041
C         -20.11965743795088  -17.19180482184421   -0.93197418891018
C         -19.40872209131344  -17.47707045969088   -2.13464645751152
C         -19.99227473491216  -18.33386513310679   -3.08950069360982
C         -21.22671826927079  -18.87558936719498   -2.86514563933403
C         -21.93113335885079  -18.58914069571415   -1.67777982309392
C         -21.38973695087088  -17.76612565145763   -0.73018060450065
F         -23.13900762219552  -19.13268672629441   -1.48577753899245
F         -21.78221730729749  -19.68470281060044   -3.77469736488010
C         -18.14042182293278  -16.89850745260365   -2.36596055474276
C         -17.60431902982134  -16.06410772437465   -1.42160661627985
C         -16.36122090873076  -15.30164938933122   -1.40885980539370
C         -15.65721064323625  -14.94684307031796   -2.52999943936722
C         -14.61472897392496  -13.99984410345047   -2.55732493400111
N         -13.77452741188107  -13.22621547574074   -2.67878595021353
C         -15.89634539585753  -15.46021282985826   -3.82097082016485
N         -15.98412001475674  -15.85852924715249   -4.89407762823674
H          -3.10142377009288   -1.56654445356912  -10.49199747760904
H          -3.38811298547565   -6.38735538297543   -9.37244991022428
H          -5.22666882117595   -1.15407119494121   -9.36206643254324
H          -5.56725571092368   -5.99830823406263   -8.22256529231330
H         -10.27151367660443   -2.01378937506780   -7.21871495448396
H         -13.07531457747964   -6.15664384050736   -6.60377225468578
H         -11.54288602793521   -6.50739207772380   -4.47190171068711
H          -8.85097671495950   -2.45270701271773   -4.65751653909501
H          -7.34409000924275   -2.71430695522010   -2.49558565846813
H          -9.51392362561300   -7.24740312474224   -4.36551166419098
H          -9.00418524902794   -7.52139227092180   -1.35258209873749
H          -9.54111200319792  -10.79668481896689    0.35833245350546
H          -9.70903807184758   -9.03147994827102    0.21592349699271
H          -7.17738262627798  -10.61228533891737   -0.48000944265746
H          -7.43541404748782   -9.73811911661269    1.03134551931645
H          -7.32654569717556   -8.84735295415738   -0.48361037061798
H         -11.25956323319348  -10.12251422509220   -7.39732256351725
H         -11.99575639684843  -11.69853200752007   -7.02545753093729
H          -9.05252086214447  -11.18157190877352   -7.71774068902716
H         -10.24430832847148  -11.93309685308018   -8.78030013040678
H          -9.71422328729015  -12.76955613988404   -7.31626639224878
H         -11.47834048851879  -13.48701102582600   -5.72014979871623
H         -10.81279845123594  -13.70977959288346   -2.73029903564918
H         -13.41405114811128  -18.19887583636308   -4.89872843340254
H         -11.69320841664185  -18.01070908567569   -0.89685441434723
H         -13.92131246651817  -16.10416111435634   -1.07278655236612
H         -13.00123241556854  -13.93013507330920    0.88268525137636
H         -15.31273203294044  -13.98378824352520    1.62533192709413
H         -20.05679363754982  -16.12752013128972    0.95658229869215
H         -19.46721777240182  -18.56212572030335   -4.00369938297816
H         -21.94080436438800  -17.55851111489073    0.17359697824074
H         -17.61555295939084  -17.14166591319420   -3.27615488881002
