140
 SCF done       -271.869010714628          0.001373432539
C         -19.23213445098441  -18.86001594108592   -0.56880519489062
C         -20.39578148581618  -19.51152889339702   -0.86720777663689
F         -20.75340069928167  -20.60072229671532   -0.17614105459849
C         -21.23205377695452  -19.04842311346893   -1.90361528618027
F         -22.36585601579988  -19.70672872608439   -2.17275546554173
C         -20.89215600751237  -17.93962963032185   -2.62761622546496
C         -19.69892490536987  -17.24740228736774   -2.34533367801557
C         -18.85209972712721  -17.71513559899164   -1.29834139198776
C         -17.64428683637465  -17.04339974572769   -1.00438470059384
C         -17.28790210350115  -15.94410520520042   -1.74237482921774
C         -18.14290133434953  -15.48217926654902   -2.78335306489719
C         -19.32097984922934  -16.10165435646373   -3.08111201759685
C         -17.53915761047678  -14.29771835836192   -3.42017961705337
O         -18.06306793125082  -13.52449623686933   -4.18696084269339
C         -16.19763409460084  -14.15254643998319   -2.77986895605193
C         -16.09505431805832  -15.10556289905248   -1.70354690077388
C         -15.02443269919392  -15.27764739190239   -0.85726085892708
C         -13.82221314537936  -14.55643994039741   -0.86908927965949
N         -12.78398326072118  -14.06349532555667   -0.79511438135449
C         -14.96550465860905  -16.25882137124248    0.15662744444976
N         -14.83961060799352  -17.02747533437130    0.99973084585807
C         -15.27214976714184  -13.23871709934033   -3.18127872161179
C         -15.26014714689322  -12.57986482557659   -4.43953642168888
C         -15.59208379215093  -13.05851361730287   -5.71708761383894
N         -16.07097497883807  -14.31878649223637   -6.11155382096751
O         -16.15262487347546  -15.21906418617622   -5.28287888873779
O         -16.32891538752519  -14.47423171891420   -7.29058745021744
C         -15.19577551200849  -12.09360957739326   -6.69435260228823
C         -14.58703803908087  -11.05304190875857   -6.06218678773347
C         -14.61692315493382  -11.29920057952861   -4.64680836455630
C         -14.26869490347904  -10.37882368316339   -3.66365027990579
C         -14.89436759072210  -10.15344355580396   -2.42909843548308
C         -14.50902841466388   -8.90790056994610   -1.96247042792102
C         -13.55448922737645   -8.34436623194271   -2.84130797440985
N         -12.92919211462416   -7.10532991780182   -2.64109352729982
O         -12.07421306217846   -6.75792828776702   -3.44471600131291
O         -13.28598466397121   -6.44098939489916   -1.68666934704621
C         -13.29682118229955   -9.26735646273436   -3.86908419910679
C         -12.22547086797802   -9.30751188771965   -4.75194436783091
C         -11.81832464135653  -10.48973364578597   -5.34502006935193
N         -10.82056971432072  -10.62664234661412   -6.19398957149411
C         -10.36737152316786  -11.93734494455525   -6.62597255564215
C         -10.25929296005261  -12.86812261705970   -5.44380418539782
C         -11.21589441565910  -13.84275437615510   -5.20004335358199
C         -11.14092012374807  -14.65927279441436   -4.07515268288389
O         -12.01036030368406  -15.65097180544466   -3.76923080434549
C         -13.14110436138210  -15.87534877187081   -4.59308342617214
C         -13.88693728556568  -17.08153371368705   -4.04836671893930
C         -10.08799889446067  -14.45805202206256   -3.17270290315108
C          -9.13348864117873  -13.48805127042638   -3.42041174550915
C          -9.19843820128536  -12.68072099653863   -4.54967838453934
O          -8.32892420015973  -11.68042416997023   -4.85524403453296
C          -7.12752349966028  -11.53722236354508   -4.11189770842256
C          -6.11295511659616  -12.63923357542282   -4.39161009951110
C         -10.01579506530500  -15.28968694146250   -1.91096306664634
N         -10.00692595940311  -14.44816830582429   -0.73770219845281
C          -8.93300776798127  -13.95582477613059   -0.14868456364266
C          -7.63495087878812  -14.30449831811737   -0.48666018180942
C          -6.45297857650934  -13.78600018177529    0.02265748396197
C          -5.19763319139189  -14.42010277538189   -0.06315002206372
N          -4.85388780138143  -15.55186889213823   -0.79756790817518
O          -5.68359571496587  -16.03675342626551   -1.56578753109575
O          -3.72568884062298  -15.99852224093657   -0.66009680879836
C          -4.28400228385865  -13.73728432753963    0.78514428831140
C          -4.91364490190547  -12.66933060751815    1.36768157826631
C          -6.23881401457986  -12.57845811680972    0.86578372803632
C          -7.05837393021532  -11.46857286127508    0.94198269387420
C          -8.07185869874258  -11.06650169084141   -0.00072730117360
C          -8.45222920034581   -9.79835265026611    0.28119352126342
C          -7.71543087271663   -9.33826458451691    1.43148138096414
N          -8.00289118686965   -8.08867550162079    2.01211274689794
O          -7.31043433259252   -7.67731139382066    2.93312022068782
O          -8.95348420759984   -7.47681759815491    1.55800085599050
C          -6.85629416090526  -10.34299330381796    1.85457606513431
C          -6.01063091785813  -10.40602529466002    3.01103963565082
C          -5.21124702141769   -9.40628990114130    3.44337538273588
C          -4.98427084002190   -8.23034105624148    2.67368255081781
C          -4.41473867131478   -7.05976108738829    3.06385796854669
C          -3.90090533575398   -6.12440164978415    2.02764719486187
O          -4.08323155017261   -6.19971719658623    0.83411231688009
C          -3.06110256334024   -5.15774123922933    2.76085462800588
C          -2.26214710020560   -4.16911802897733    2.26272184138052
C          -1.48352581341480   -3.40022580264605    3.15547582920118
C          -1.54754518248569   -3.67589120725714    4.55229414730106
C          -0.74895161002380   -2.92161405763287    5.43559278602355
C           0.07144058744113   -1.94004391449974    4.95506472021917
C           0.12907383092006   -1.66454347942110    3.57392883245833
C          -0.63272223697770   -2.37765783652462    2.69182287490844
F           0.94324723847979   -0.69622561073280    3.13144887347920
F           0.83417731492926   -1.22836812569883    5.79560164956529
C          -2.39743603897174   -4.69522100659757    5.04008215603325
C          -3.14980946357622   -5.42385614105048    4.15756846838528
C          -4.10102756727970   -6.51665166028063    4.36730362144539
C          -4.70228980530311   -6.82500006012934    5.55637355153598
C          -5.75734800549698   -7.74778327049825    5.73832804533115
N          -6.61251690532342   -8.46712886000149    5.99660288178176
C          -4.37802120799267   -6.18856867571932    6.77478040299972
N          -4.13986195286320   -5.72130203262408    7.79568030818083
H         -18.60329192265706  -19.22912321378580    0.22635258354634
H         -21.54218994024071  -17.59860960826361   -3.41803111663844
H         -17.02865027633359  -17.42136978931729   -0.20405472914932
H         -19.94853433015203  -15.73197610777327   -3.87740143876132
H         -14.44963480026522  -12.98847327275068   -2.51967981509985
H         -15.36440576948280  -12.21577070432235   -7.74700141633785
H         -14.24283989884646  -10.14248923387824   -6.51317248520903
H         -15.66003851555007  -10.77210147955927   -2.00188614486186
H         -14.86915201109057   -8.41412799359030   -1.07845445425548
H         -11.63609841528712   -8.40790160784478   -4.87083951432325
H         -12.30306882472030  -11.41566868819209   -5.06493864427237
H         -10.30304578185333   -9.81109198007306   -6.49344725985976
H          -9.38899601195757  -11.81953809792383   -7.09299676708030
H         -11.07128885183848  -12.34185472920874   -7.36097960637147
H         -12.02095668219400  -13.96425646449490   -5.90843720116347
H         -12.83095038135379  -16.06117547539081   -5.62862807189783
H         -13.78905939859217  -14.99087802623051   -4.56429230539226
H         -14.05082841553553  -16.96362781930897   -2.98046702168304
H         -13.31485458918944  -17.98997000425079   -4.21287033377153
H         -14.84904634126576  -17.15730856534253   -4.54592595873925
H          -8.33016742428673  -13.36916459020287   -2.71307511046099
H          -7.34488624158431  -11.46337525469742   -3.03992059672075
H          -6.73089648474877  -10.57409996827559   -4.44295006856054
H          -6.47424540260036  -13.61145609767426   -4.06729547600420
H          -5.18930065777767  -12.41857731053820   -3.86580983919147
H          -5.90512405276845  -12.68929362713746   -5.45686743936028
H          -9.12696795883727  -15.92380034660135   -1.93322289595107
H         -10.90091280885695  -15.92469449856279   -1.86501067568365
H         -10.93990309946277  -14.13659421747703   -0.46034302223382
H          -9.11419131265204  -13.28042127700803    0.67817577545705
H          -7.49240639965496  -15.13283984716976   -1.16897024787758
H          -3.25852635654552  -14.03060726902219    0.91199044640486
H          -4.44218135561404  -11.93576961478084    1.99079829311721
H          -8.39065862444106  -11.64481418262652   -0.84558232607139
H          -9.16542164449364   -9.19037869317079   -0.24143772212769
H          -6.03889569637986  -11.33740362069587    3.56162576354490
H          -4.66753658678305   -9.52646025494391    4.36848590315431
H          -5.17266102310283   -8.30632498522507    1.60615842408135
H          -2.21923853986496   -3.98192405229857    1.20050624270840
H          -0.78334403945589   -3.11631646358291    6.49610616563062
H          -0.57725298566496   -2.15607655586595    1.63744392926380
H          -2.42038371015650   -4.88339095456851    6.10151722836804
