110
 SCF done       -231.133055954401          0.000914275616
C          -7.98160436396578    1.38230100592946    3.96780415360509
C          -8.83804344335311    1.49437579681328    5.02698943410158
F          -8.75683796764476    2.54680793843368    5.84966813908088
C          -9.81517379163161    0.50657729979976    5.26763716018839
F         -10.64007104988547    0.64314206097451    6.31309958096102
C          -9.92250889131637   -0.57945298958784    4.44464753441342
C          -9.05462393622816   -0.72368823613157    3.34463542190398
C          -8.06480381274365    0.27330291006197    3.10164439658665
C          -7.17694460775114    0.14612038778493    2.00932985561663
C          -7.27096670837662   -0.94814682628567    1.18917097236022
C          -8.26599358790995   -1.93539040358548    1.43647669945818
C          -9.14329596062951   -1.83522775828200    2.47795547097619
C          -8.16656091511110   -3.00057902339622    0.42601109050831
O          -8.95186133068325   -3.89661291859952    0.22859936038797
C          -6.97736335451575   -2.64372547726479   -0.41174956865903
C          -6.48376057872842   -1.35392301298642    0.02836453315430
C          -5.41931697104904   -0.66665615630770   -0.49490575494290
C          -4.96235964808568    0.57605575602695   -0.00525979773768
N          -4.54685550888891    1.58868905151223    0.33907414724451
C          -4.62819162065758   -1.09591081310699   -1.58219289785550
N          -3.93396119122915   -1.38162742076407   -2.45014806063482
C          -6.54758787838498   -3.37497869093181   -1.48028045770357
C          -6.85434363425288   -4.73984840511115   -1.68298459131176
C          -7.12455378694015   -5.75567631720378   -0.78471989663166
C          -7.20468873300476   -6.96879158626466   -1.51309956781320
C          -6.98008112409405   -6.64286828208231   -2.91688455217986
O          -6.96615391039648   -7.30204641149236   -3.91116208226397
O          -6.74816065029012   -5.26595860962799   -2.93361386061740
C          -7.42439156423356   -7.99228744501302   -0.60558957375200
O          -7.46953737799148   -7.46023013833944    0.65937868235252
C          -7.25988754764338   -6.09142356375694    0.62787229670280
O          -7.17791121865216   -5.43677392776826    1.62604300398565
C          -7.55885721772956   -9.37639824593396   -0.79443650599095
C          -7.81701438010292  -10.21620332557781    0.25719026497455
C          -7.88992413852475  -11.61505597359053    0.14003749930724
N          -8.17605769078200  -12.46082524092005    1.18510487596070
C          -8.44742379903905  -12.08319935289622    2.55285100004234
C          -7.16446324909248  -11.78740276727510    3.32512734675163
C          -8.12614418346163  -13.81063778000366    0.80129901370395
O          -8.34631294072615  -14.73504488628602    1.55291300799691
C          -7.78487797826165  -13.76797445291719   -0.61045019426938
C          -7.66185205530318  -12.42121797190334   -0.98691377896697
C          -7.30953512528991  -12.37855439131896   -2.39749542168571
O          -7.11598685087239  -11.45204472318578   -3.15064944365351
N          -7.23730868752115  -13.73069029686278   -2.77610433299756
C          -6.86455397961892  -14.11008565818597   -4.12079093399715
C          -5.38600271050985  -14.47240130010831   -4.22107001681965
C          -7.50116519212743  -14.57388685689637   -1.72720557053911
C          -7.44273119176163  -15.97714810728177   -1.81658164656594
C          -7.72129360721076  -16.80827002465736   -0.76439807723087
C          -7.58148889656913  -18.20128734316583   -0.88280111273111
C          -7.11453902349417  -18.98102946593011   -1.93342802893144
C          -7.12047043112467  -20.33180523433663   -1.50497212515218
C          -7.64038642466189  -20.34768730558129   -0.14309394313051
O          -7.85077936629970  -21.23746771712523    0.62611754196959
O          -7.89466105624646  -19.01407386885280    0.16467251682986
C          -6.60108596290036  -21.10564236294842   -2.52782567470842
O          -6.29262448346982  -20.28977564182684   -3.58267617836534
C          -6.57991431666450  -18.96780768597795   -3.28222280160192
O          -6.38989551634649  -18.07287624620158   -4.06071501235447
C          -6.36000905792643  -22.49421212138968   -2.53044632252012
C          -5.77171020662593  -23.22311411090593   -3.52188328800215
C          -5.42909151064295  -22.75036389508349   -4.81198511009593
C          -4.58421363066841  -23.36005953731495   -5.69008435672276
C          -4.63886838929251  -23.03530153031794   -7.14613879885240
O          -5.20943939586128  -22.10323453140737   -7.65747174519216
C          -3.90533740175717  -24.13238808439178   -7.80978896327596
C          -3.74755769128844  -24.37083851100191   -9.14485640491350
C          -3.01140991218015  -25.50361627090169   -9.55840163858763
C          -2.45813259510231  -26.37574339448058   -8.57566859873564
C          -1.72833544461649  -27.50616221916352   -8.99501033305970
C          -1.55263119366534  -27.75700279315905  -10.32701085135317
C          -2.09909684044516  -26.89310212583063  -11.29820601325572
C          -2.81370217540169  -25.78988264656033  -10.92330359035341
F          -1.91164508555214  -27.16445961836647  -12.59539646038523
F          -0.85760078958485  -28.82941570417666  -10.72367158729212
C          -2.63494619143048  -26.10219487930202   -7.20008927279713
C          -3.34154349797321  -24.99166547456752   -6.82240915423706
C          -3.63951240130279  -24.43977525159977   -5.50343432130697
C          -2.97588540188534  -24.73781190838067   -4.34204301016500
C          -3.07782955610661  -23.96837096206148   -3.16265137413278
N          -3.08228764310399  -23.34234943161504   -2.20112498097303
C          -2.02108572274729  -25.77072206114493   -4.23057939166342
N          -1.25862284474788  -26.61656927955266   -4.09116761383231
H          -7.23900001212777    2.14653347686250    3.79928901570416
H         -10.67495062821782   -1.32666195421136    4.64224276244118
H          -6.44213268767915    0.91894038883280    1.85211158397737
H          -9.88494760314866   -2.60141134010026    2.64275378429504
H          -5.91721475937436   -2.93184892737065   -2.24058579413437
H          -7.43576242998854   -9.74759282065759   -1.80322742284381
H          -7.96177634261484   -9.77549994030960    1.23354508196867
H          -8.95846311376235  -12.93638911907377    3.00732297286599
H          -9.11926207143624  -11.22148455746588    2.56496240118791
H          -6.52460846716732  -12.66626811831288    3.33340040791086
H          -7.40787182088789  -11.52692810174235    4.35109658971901
H          -6.61600628859550  -10.96248107798101    2.87634349403626
H          -7.07220953408748  -13.23905103982483   -4.74820725144807
H          -7.48636187749938  -14.94527954001594   -4.44997834956744
H          -4.77154168682667  -13.63438868627263   -3.90155483140796
H          -5.14347202766888  -14.70946980923035   -5.25223298580668
H          -5.15257539093852  -15.33842051442504   -3.60744724818833
H          -7.14643362566853  -16.41056689212740   -2.76197638882210
H          -8.04174297002510  -16.42076534074994    0.19379373235798
H          -6.62837459576932  -22.98221029966444   -1.60413596561431
H          -5.57934174889630  -24.26775558373588   -3.31219096214770
H          -5.93279844190809  -21.86532341307662   -5.18306189571819
H          -4.17714702403195  -23.70293555408008   -9.87582141081723
H          -1.30043899297513  -28.17556313316413   -8.26517918666631
H          -3.22506864594897  -25.13878389692076  -11.67861995867312
H          -2.21218551027835  -26.78249142257098   -6.47803253147587
