118
 SCF done       -233.864846259589          0.000502587497
C          -3.96693125843503   -0.56284808282361   -4.73734125492617
C          -3.03429380520015   -0.96055613194792   -5.65383185236911
F          -2.24530537873280   -0.05713505981558   -6.24782329999022
C          -2.89068029246298   -2.32307035192338   -5.98588328097548
F          -1.96838845066584   -2.68518320734017   -6.88733339394708
C          -3.68205678284250   -3.26873648757304   -5.39680985590230
C          -4.65255079078356   -2.89061305594653   -4.44853192700458
C          -4.79947557155270   -1.51319287807700   -4.11263784359872
C          -5.76999944951612   -1.10998800737613   -3.16749080674246
C          -6.56953276250364   -2.05466016641770   -2.57994471200965
C          -6.41108505273334   -3.42949267761337   -2.91426681454693
C          -5.48060495728590   -3.84796949603025   -3.82210168511642
C          -7.36376707699186   -4.24140692755274   -2.13504554197955
O          -7.45271666008554   -5.45180474021852   -2.13162671785248
C          -8.10792610877690   -3.27388770862618   -1.29067471365066
C          -7.65222499297659   -1.93495296270905   -1.61062938374362
C          -8.21731086043277   -0.76993360927867   -1.16795230289484
C          -7.75248531130719    0.51530761238434   -1.51740297498458
N          -7.40725938819234    1.58044275114164   -1.76832543418785
C          -9.37491074487587   -0.71335051488092   -0.36146203450278
N         -10.34524399771870   -0.60932336273719    0.24224906829314
C          -8.92027811155949   -3.63902998549773   -0.26156483754919
C          -9.44150149119438   -4.94879730368086   -0.07220420989577
C          -9.43568432055670   -5.67906638887276    1.11074453011197
N          -8.89151709771397   -5.24935805337550    2.33249794748515
O          -9.04381499776974   -5.96802886050208    3.30334248693761
O          -8.29971177081788   -4.18042344969561    2.34881228182713
C          -9.99190994803983   -6.97770668058541    0.87704568695298
C         -10.31204253506426   -7.07035888529306   -0.44136898445282
C         -10.00443140715061   -5.82332618899160   -1.08957401085195
C         -10.35822638924867   -5.44266705559831   -2.37605862626048
C         -10.75837517973499   -4.14657894312111   -2.78951800845330
C         -11.31149073505647   -4.23055848243400   -4.03938071884258
C         -11.22438627867595   -5.57654016271915   -4.49958441196835
N         -11.59322742313436   -5.96530890122457   -5.78120661054072
O         -11.37438958648452   -7.12495647803318   -6.13430933842246
O         -12.10748545854955   -5.13427114497223   -6.51309393251270
C         -10.59260225411022   -6.35530244392239   -3.51471418570962
C         -10.16229632134863   -7.68090264831257   -3.62028362958098
C          -9.13156073447187   -8.20275374033978   -2.86906866518947
C          -8.72865984281258   -9.54190569137978   -2.75717214144554
C          -7.94867664982792   -9.94847816380431   -1.67429695262742
C          -7.93401097267583  -11.35536192322599   -1.59473055794093
O          -7.15723940728659  -11.94220105827032   -0.67632713106854
C          -6.76520277039967  -13.29193439287164   -0.79132402409706
C          -8.72641876097457  -11.87364527201708   -2.63924620407916
C          -9.17764596265547  -10.76201977328949   -3.43746353233251
C          -9.83387553997161  -10.88038046634130   -4.65018791294762
C          -9.80059266226139   -9.99623385817425   -5.75947824431363
C         -10.51078925951222  -10.57255992535717   -6.78568769335248
O         -10.71288155595483  -10.19876025202621   -8.02893127451946
C         -10.21162504423573   -8.93862839968153   -8.44141493274748
C         -11.09031475357982  -11.83966570564160   -6.30474999688783
C         -10.66817543958303  -12.03329635599275   -5.05033657896592
C          -8.97878492996086  -13.25111924433669   -2.96647622176018
C          -9.42646604175394  -14.17100664845103   -2.08431399969294
C          -9.72259269357243  -15.52624312571694   -2.41227092268100
S         -10.40969747749130  -16.57564213780671   -1.20721555453613
C         -10.49548893057631  -17.91109739005847   -2.31278963500426
C          -9.99540680768865  -17.53048499670470   -3.56262023322820
C          -9.56621514318138  -16.19543204089828   -3.60815839811979
C          -9.89909671700670  -18.36197729309264   -4.69207375848813
N          -9.77950759165740  -18.99979729272035   -5.63859517704948
C         -11.06036939466602  -19.13510097336832   -1.88292546244427
C         -11.26103418291317  -20.21521728371518   -2.68121255469125
C         -11.89674055302766  -21.40035155754929   -2.24600962813502
C         -12.35888001845211  -22.38890906204680   -3.06121227068551
C         -12.64370089857193  -23.74762210733465   -2.52439319745835
O         -12.75851999216276  -24.05766193950341   -1.36187813641859
C         -12.68843536649725  -24.62591779388181   -3.71152861454258
C         -12.79951673651925  -25.98550262166678   -3.76734529177619
C         -12.78409669724401  -26.62507782207450   -5.02709796677519
C         -12.64574116180268  -25.83983783245925   -6.20868329076540
C         -12.62036024512437  -26.48504870741949   -7.46146776746403
C         -12.73084165015520  -27.84505054689965   -7.53800600183101
C         -12.87013385987549  -28.62050137712360   -6.36900705522125
C         -12.89640782402175  -28.02468343736691   -5.13925512356539
F         -12.97557665319018  -29.95152421676624   -6.47422263188542
F         -12.70730342679730  -28.45653825554199   -8.72882173206399
C         -12.54034245004187  -24.43288322025077   -6.12081046929572
C         -12.56965316822211  -23.83361858785737   -4.89009439371903
C         -12.51756223038011  -22.42633877090909   -4.50043253647754
C         -12.79884300499332  -21.36530132707142   -5.32018280042359
C         -13.02814961471804  -20.04742356992219   -4.87022214605357
N         -13.27975939243708  -18.97329008382776   -4.55303670981694
C         -13.01737504919759  -21.49055239976306   -6.70915257923726
N         -13.19943234578729  -21.54399244808234   -7.84058912870896
H          -4.06488311237463    0.48392473086290   -4.49555619961696
H          -3.55878937083803   -4.30721814334344   -5.66150796124850
H          -5.85414082109303   -0.06230397377379   -2.92756645556959
H          -5.37880291902751   -4.89597355263096   -4.06020344836620
H          -9.14781206304929   -2.91972123256925    0.51737374735787
H         -10.11435401302115   -7.72101655435116    1.64106492259337
H         -10.81271941943850   -7.89018593391134   -0.91882479285377
H         -10.74095918505946   -3.27201018853802   -2.16774938353494
H         -11.74923401480826   -3.43339433421046   -4.61089333374852
H         -10.65178921571270   -8.28911197467974   -4.36774733212075
H          -8.57137526998506   -7.51393194537296   -2.24899586423314
H          -7.46736965256371   -9.29937376160033   -0.96807067884819
H          -5.85341851489534  -13.38086112633109   -0.20089511831651
H          -6.55872193714582  -13.56255998461800   -1.82912253913048
H          -7.52009895493324  -13.96980391505803   -0.38541556992098
H          -9.22316922646194   -9.09557973966056   -5.81101548534471
H         -10.55021497222447   -8.79889890341845   -9.46553045584384
H          -9.11917508497641   -8.92851457498116   -8.40675979297015
H         -10.60770810195852   -8.14872358210402   -7.79967139197592
H         -11.74237416034333  -12.45083122090998   -6.89746868645695
H         -10.96691342450353  -12.81750368200808   -4.38275423081195
H          -8.86111677619003  -13.52469835431763   -4.00645940754348
H          -9.64182786721167  -13.87505852542513   -1.06628327260809
H          -9.16040584977297  -15.74877408110294   -4.49810593497280
H         -11.40514522525913  -19.16487571551091   -0.85701327972704
H         -10.92379970770835  -20.17990950090628   -3.70586404295245
H         -11.97914366060977  -21.57912035380763   -1.17963672894339
H         -12.89603338493495  -26.56592107608973   -2.86243983761305
H         -12.51778594463813  -25.90601132839751   -8.36589735800773
H         -13.00313924038640  -28.63233925094796   -4.25434897940977
H         -12.42770630240876  -23.86325000208653   -7.02937853868418
