112
 SCF done       -225.220699033164          0.000443474571
C          -7.49064172143309   -0.01479078160626   10.03213785564265
C          -8.33979340461776   -0.22201412410536   11.08327843634422
F          -8.32040324726557    0.60288877952205   12.13674982964982
C          -9.24458119560063   -1.30287723557276   11.07221504719075
F         -10.06511864298129   -1.48178830283464   12.11484546563881
C          -9.28773267755595   -2.16179557635979   10.00958441175882
C          -8.42631702372713   -1.97390777377269    8.91158753115547
C          -7.51075989188613   -0.88181851241548    8.92155121561790
C          -6.63709579784921   -0.67167742459915    7.82943820954829
C          -6.67937750622127   -1.52559330695168    6.75939941604692
C          -7.59930823847597   -2.61246350111742    6.75839498816697
C          -8.45295169038658   -2.84305978425899    7.79831664045775
C          -7.45270305351492   -3.36257391141339    5.50197313570661
O          -8.08603098727672   -4.34880664934982    5.16269755136439
C          -6.41343500732140   -2.67602579167404    4.73160027832741
C          -5.92195054286585   -1.55497322585003    5.50962566925985
C          -4.92648813429163   -0.67663778482366    5.16596180057028
C          -4.49747147468998    0.38979185088922    5.98490644150618
N          -4.10622191909762    1.27434913477356    6.60242814693288
C          -4.19008071797584   -0.70586513513214    3.96332992483180
N          -3.55718693620437   -0.67615339922897    3.00500693212476
C          -6.01047715629589   -3.01490170490585    3.46275002770269
C          -6.41723890031824   -4.06441141625916    2.63350711881862
S          -7.56461456375740   -5.31221900859434    3.02497343511198
C          -7.43527635088075   -6.01447313346055    1.46232309789924
C          -6.50195536598947   -5.35397506898548    0.64776260667659
C          -5.91518991144540   -4.23874365806685    1.31522201391190
C          -4.94079953392428   -3.47616956021779    0.65610134531024
C          -4.54471886243711   -3.83309463816932   -0.61608156465111
C          -3.56430902770584   -3.07085189497989   -1.29583301987869
N          -2.77463417168323   -2.45309547091911   -1.84894777567231
C          -5.09207361030864   -4.98160422149051   -1.25706749060173
C          -4.63195336428070   -5.35044411925953   -2.54382292241231
N          -4.27714738575141   -5.66566482691961   -3.58598113009907
C          -6.05645676818819   -5.73676117619152   -0.62782536456140
C          -8.23008185520706   -7.16069123872598    1.15003427623188
N          -8.99874945739919   -7.31451645608831    0.02271793405497
C          -9.38265415205040   -6.27747179150670   -0.90785068723640
C         -10.29435915689537   -5.24551772585793   -0.25028697523105
C          -9.67883095891883   -8.56009599746268    0.03054028047467
O         -10.45405900179078   -8.90631404466150   -0.83196306895262
C          -9.22065377387438   -9.20010004364405    1.24103148848376
C          -8.36074218637657   -8.30622353526569    1.92018689077059
C          -7.86383603298396   -8.98335519315249    3.10027720872945
O          -7.10170964726270   -8.63642384707972    3.97375403518978
N          -8.47268498104706  -10.25924068145552    3.05398638256299
C          -8.26376706177016  -11.18467630313537    4.14203644762534
C          -9.49401162264996  -11.30345228995981    5.03726261948005
C          -9.28355681325015  -10.39902213527543    1.94926438915130
C         -10.07449179163210  -11.48311553246326    1.50106749716845
C         -10.15422994906993  -12.76244373536125    1.95972845056217
C         -11.01198766134971  -13.74249601169114    1.40882551083565
S         -10.57853610626764  -15.40864931402513    1.55603347004015
C         -11.85903087629123  -15.94151288189915    0.51988524593248
C         -12.69181358116074  -14.85708041459921    0.18091870905015
C         -12.21244477002739  -13.60513840796895    0.67912910824235
C         -12.97725948872865  -12.44550234871413    0.48223987600910
C         -14.15922700044576  -12.51598959261051   -0.22305150626043
C         -14.93926299866482  -11.35078390646686   -0.41363598090159
N         -15.57007665098116  -10.40443779772576   -0.54734117084262
C         -14.63730246863783  -13.76489042690504   -0.71165706416464
C         -15.87223762749178  -13.83621878196756   -1.39840626469377
N         -16.86506876244382  -13.93480652425896   -1.96072958416493
C         -13.92278490348088  -14.92033734028315   -0.48855953450696
C         -11.93344727806542  -17.29773316105201    0.14758577249090
C         -12.48101481231872  -17.85688252623695   -0.97191832280682
C         -12.80433110627485  -19.31211481524881   -0.96906829403694
O         -12.45819351802925  -20.12327000838532   -0.14252473786542
C         -13.67369989830587  -19.51714326876464   -2.14410250387312
C         -14.34368075132637  -20.64143822836911   -2.53201661330476
C         -15.15979519344456  -20.59099606420304   -3.68470056488735
C         -15.27394552362821  -19.36885112576043   -4.40971214239506
C         -16.10109018050907  -19.32155279357953   -5.54956514555396
C         -16.77809609117329  -20.43756467730501   -5.95521242823457
C         -16.66089067973786  -21.64714254872655   -5.24041161271823
C         -15.86967487378596  -21.72353870795484   -4.12831831006573
F         -17.33490954507013  -22.72464407907898   -5.66089857506384
F         -17.56102198273801  -20.39348978996645   -7.03919973024498
C         -14.55995954541504  -18.22285577114823   -3.99054760347689
C         -13.76334554481912  -18.30035361543329   -2.87994104510250
C         -12.90286002193278  -17.30801915124278   -2.24136290207335
C         -12.41504828309691  -16.17842095763028   -2.84897519794077
C         -11.39718532629195  -15.37537464515280   -2.30133288649345
N         -10.54881931817530  -14.71550568669075   -1.89708430212178
C         -12.81517618219898  -15.74078757292557   -4.12853818504329
N         -13.11803267920484  -15.33320673923991   -5.15728821669457
H          -6.80438873377056    0.81727454926237   10.05692947416687
H          -9.98615107990968   -2.98390526244110   10.01635590212198
H          -5.95841164657227    0.16462425151293    7.86892058809595
H          -9.13965191727961   -3.67532510723434    7.77100070272320
H          -5.26997962331737   -2.36894847079173    3.01252028460633
H          -4.47846762531090   -2.62026005727907    1.12459148785209
H          -6.43716794442961   -6.63063688392773   -1.09866973058218
H          -9.91651171967443   -6.78724880755341   -1.71449808622699
H          -8.49810745120686   -5.78855841292873   -1.32138507992447
H         -11.18383263507019   -5.72824444688216    0.14727538463457
H         -10.60036714141498   -4.50769580969170   -0.98619810606493
H          -9.78063031921762   -4.73516381650923    0.56226030972752
H          -7.43150150589101  -10.77112808437750    4.71997584799476
H          -7.95754629597317  -12.15790589227108    3.75000181590537
H          -9.73076728011418  -10.33415145602082    5.46889608061635
H          -9.29376964538316  -12.00201300208492    5.84482039455164
H         -10.35862272994357  -11.65280874903314    4.47735276753385
H         -10.63956387465624  -11.22233830252984    0.61626430465468
H          -9.48779189533791  -13.11773629214879    2.73152782547120
H         -12.67411770027670  -11.50139474802812    0.90483685961846
H         -14.33371048392983  -15.86962431089677   -0.79588103222541
H         -11.52140083573997  -18.01288519452549    0.85412658461239
H         -14.25455485916525  -21.55648658351150   -1.96662373368512
H         -16.19974230691776  -18.40425769506530   -6.10869064578871
H         -15.79217644982727  -22.65632020298800   -3.59202190684629
H         -14.67097184114178  -17.30834862328135   -4.55111203371300
