107
 SCF done       -208.581891054881          0.009876411950
C         -11.20634959072179   -3.19193858059770    8.58375107866966
C         -10.18358535621498   -2.42999897719433    9.07568473395759
F         -10.44556556204256   -1.28566695851258    9.71992745088075
C          -8.84424655403979   -2.83571515533626    8.91187539360508
F          -7.86155452460461   -2.06994246921337    9.40649119159564
C          -8.54480460093288   -3.99715870666229    8.25697251989054
C          -9.57649815877889   -4.80324917828466    7.73820888115580
C         -10.93167947604744   -4.39596294533219    7.90593721938424
C         -11.98503919732547   -5.19334222461341    7.40084683410117
C         -11.69188552823799   -6.36169741823694    6.75047405636800
C         -10.33504895662408   -6.75611421106339    6.58163965862852
C          -9.29644203543870   -6.00692121748625    7.05479940128398
C         -10.28511221149253   -8.03473534414020    5.86034362384767
O          -9.26887293403808   -8.61306350682116    5.50114506610593
C         -11.68416082543285   -8.39918594352596    5.58253128969660
C         -12.54579265299736   -7.37767166407305    6.14305309605880
C         -13.91606930631460   -7.37124540041116    6.14544743649954
C         -14.73765809137288   -8.38232072795215    5.60515509846234
N         -15.47213495342292   -9.16351277939826    5.19776171553401
C         -14.69856530323972   -6.34434842749281    6.71466702098411
N         -15.38986739680242   -5.54005897479038    7.15329572811965
C         -12.08696401292440   -9.40584673973405    4.74452981969785
C         -11.29585453078238  -10.44736875006961    4.23164909144385
O         -11.74883115314881  -11.08900814021334    3.11638432229430
C         -10.84755410032380  -12.02818427325622    2.78106337199691
C          -9.79228886022053  -12.01315981575121    3.69139060215907
C         -10.07866174605657  -11.01733136867849    4.62391475773242
C          -9.33545795708771  -10.78433824366252    5.87963978534572
O          -9.85005710098254  -10.78649128982419    6.96900785471575
C         -11.02150722686360  -12.85388183903144    1.65089841774210
S          -9.78778052049469  -14.00892318828281    1.28103513091122
C         -10.62536759254062  -14.58751667865183   -0.12418064733511
C         -11.82675321055914  -13.89096819473251   -0.30217227636351
C         -12.05635869578859  -12.90155935411384    0.70324010599337
C         -13.20551079332709  -12.09414806885149    0.64594495554313
C         -14.09430151353836  -12.24240141205570   -0.38868604984529
C         -15.29644336243512  -11.36085833660628   -0.49928438129941
C         -13.85636805823327  -13.22248651389948   -1.38105191691850
C         -12.76266087298668  -14.03620148635503   -1.34577848171547
C         -10.01370384278198  -15.54287579517815   -0.98207328438232
C          -8.76397550870231  -15.98975175412075   -0.76713983069067
C          -7.95327033738303  -16.77349079255027   -1.68489664936843
C          -8.42329375366179  -17.98174245483765   -2.20397991134581
C          -7.58133451889941  -18.71665995458307   -3.00810993595994
C          -6.29832510646972  -18.25617872837172   -3.32982869087037
C          -5.64295456691386  -19.28258417845553   -4.17846271440835
O          -4.54014706627558  -19.28641238775315   -4.66093906503388
N          -6.57373217879688  -20.30481360127747   -4.30264046437390
C          -7.76270648140494  -20.04795182697393   -3.63695563852508
O          -8.70797803283564  -20.79049260564754   -3.58978192381711
C          -6.32946906519822  -21.51716804000625   -5.05573928765364
C          -7.05136283718515  -21.49481006238910   -6.39804249558098
C          -5.83530146298361  -17.04774325388513   -2.87043023178619
C          -6.66611479218254  -16.28555440215523   -2.03643424729465
C          -6.31592847597201  -14.96233144394844   -1.59232249216945
C          -5.21532876881619  -14.22300948802314   -1.84794451222727
C          -5.07454609049099  -12.91063661305100   -1.31022574625109
C          -6.03400968612283  -12.02109873847690   -0.92664577550039
C          -5.64149043867596  -10.92545988312101    0.00855140928172
O          -4.51649351683368  -10.61230947779316    0.31668522698295
C          -6.90951150363763  -10.34357160749250    0.49407140492972
C          -7.10445388212436   -9.36178172163962    1.42333584152562
C          -8.41736495251650   -8.90806503932377    1.68026698417209
C          -9.50768195184433   -9.50412675080916    0.98328263976865
C         -10.81361624705069   -9.02487906421402    1.20960061404513
C         -11.02090470068392   -7.98930830959814    2.07490164988788
C          -9.94072642766933   -7.39209746674528    2.75349192829813
C          -8.66682335224035   -7.84869811287593    2.57495497183349
F         -10.18408247901991   -6.35957212855272    3.57566685982481
F         -12.26140684463957   -7.52539060781587    2.28970707149411
C          -9.27760688231280  -10.54075333962563    0.05164576092089
C          -7.99392027184872  -10.94649534273387   -0.20203144195024
C          -7.46199860293383  -11.91179152157851   -1.16268606226513
C          -8.17897907322507  -12.41491482780136   -2.21685123592029
C          -7.63883355023277  -13.17376236823929   -3.27391156834284
N          -7.27301285968988  -13.77324230199518   -4.17969337856441
C          -9.55957288757742  -12.20660556546182   -2.41070618775380
N         -10.68322405963520  -12.10905411483295   -2.61988360688409
H         -12.22651260087103   -2.86799568083915    8.71819177904505
H          -7.51387829941688   -4.29322771521102    8.14182498322656
H         -12.99867944132782   -4.85545819240388    7.54278159431442
H          -8.27647718756289   -6.33085768362545    6.91498419787899
H         -13.10509603150762   -9.40185282627358    4.37604419293167
H          -8.94516809020272  -12.66889099435221    3.68424979304297
H          -8.23835454324039  -10.78034235846894    5.74758672436371
H         -13.37663470523885  -11.36203497531340    1.41922798350260
H         -15.06020124530980  -10.50108232535636   -1.12268188594818
H         -15.60855735145547  -10.99698240853978    0.47531091496659
H         -16.12549151821337  -11.88969644691206   -0.96752541419967
H         -14.56829343242492  -13.31952595708293   -2.18683407002365
H         -12.60222524510813  -14.77806275324505   -2.11126646451556
H         -10.55220240149708  -15.82298337767338   -1.87273541528320
H          -8.26726014239726  -15.67061951741259    0.14313962568536
H          -9.40240257674246  -18.34672192888212   -1.94248060720066
H          -6.67796134943837  -22.36285403209332   -4.45566129450068
H          -5.24832601730035  -21.58645824969719   -5.19870242424178
H          -8.12525030767430  -21.42413179554758   -6.24363189007583
H          -6.83630101533389  -22.40990228155319   -6.94287160982383
H          -6.72158544897746  -20.64566182917820   -6.99324937755192
H          -4.85581002253754  -16.69862492873066   -3.14986725647952
H          -7.06080959842479  -14.48668121993390   -0.96907886198458
H          -4.37423027573386  -14.62120516436907   -2.39410117787582
H          -4.05981141075927  -12.58446861676318   -1.09942288376520
H          -6.26578222686969   -8.91798545075859    1.93699262684731
H         -11.64885114110750   -9.46822456215976    0.69040671719202
H          -7.85511901160971   -7.38886862363435    3.11460863970490
H         -10.12608567468813  -10.97553784196319   -0.45168814989167
