100
 SCF done       -227.406438843566          0.000573134000
C          -3.97818707250416    1.04579428097722   -4.79262999796703
C          -4.04226550184423    1.02237589595711   -6.15785575584068
F          -3.84604122053009    2.14316681000025   -6.85969664052325
C          -4.31476640163090   -0.17979687862800   -6.84370192685551
F          -4.37032567300357   -0.17226468722613   -8.17996282439469
C          -4.52008543424596   -1.34180844045968   -6.15388988757879
C          -4.46026158220904   -1.34966370191383   -4.74650830165644
C          -4.18398670970769   -0.13550888966824   -4.05183887593814
C          -4.11502741700097   -0.11880906039905   -2.64016092763996
C          -4.31513723216671   -1.28058051124479   -1.94064671138141
C          -4.59363503175716   -2.48635031943505   -2.64442394517049
C          -4.66668746611868   -2.53461867926060   -4.00821316158693
C          -4.76623685547499   -3.57933890230983   -1.68126835581154
O          -5.00145435847439   -4.74572770953220   -1.93990882036122
C          -4.58479843388729   -2.98794450029693   -0.34341555737278
C          -4.29468963955275   -1.56734654818835   -0.50840154686209
C          -4.04154469545648   -0.65276234269271    0.47501694170549
C          -3.98910487405480   -0.90106148446138    1.86640838480187
N          -3.91196852451750   -0.99755852179178    3.00680293142745
C          -3.77762236888084    0.71397398248573    0.22732300823141
N          -3.55878629671621    1.83206664867390    0.09472743959717
C          -4.67221073259231   -3.64887783355054    0.84673124202900
C          -4.93729006304061   -5.01592176564027    1.10680140231793
S          -5.19580838145972   -6.25339558842609   -0.08298892781548
C          -5.29952891137178   -7.48399187323511    1.12783688526975
C          -5.09796245361011   -6.96571459636821    2.40440583028446
C          -4.95912004079503   -5.57072793828631    2.39364552446491
C          -4.93152789511820   -4.70715512578395    3.62790320577430
F          -3.70740549475910   -4.23384235476820    3.89759127171029
F          -5.73626446330152   -3.63547783429793    3.48119755089767
F          -5.37535887826498   -5.32967005245982    4.71650830542358
C          -4.86443532230860   -7.82691955678153    3.61747244788209
F          -4.37922173317598   -9.03424022047087    3.27563115609494
F          -3.93772540085094   -7.30214277624057    4.42808008073357
F          -5.96606612562234   -8.04492336349285    4.33979987840525
C          -5.63299911372407   -8.81148817899330    0.72059211195764
C          -6.27364801135617   -9.80000227963619    1.42339702799111
C          -6.44495730730892  -10.93976858970416    0.57021657591445
C          -5.86409466865534  -10.56612637020800   -0.73186322057540
C          -5.39906186829281   -9.29452762680399   -0.63423470985193
C          -5.78982080246067  -11.36682456676684   -1.87804310115797
N          -5.71670562579838  -12.00384204524848   -2.83062898302940
C          -7.02345791877764  -12.13922726507523    0.89415816801176
C          -7.18557515216727  -13.28112262696676    0.04818665822960
C          -7.78973181831563  -14.28635066181570    0.76260429722864
C          -8.04007866011295  -13.79880143353527    2.11867718044552
C          -7.59307309235639  -12.52253670927569    2.20375359721244
C          -7.67997630862823  -11.72138090612334    3.35112282078711
N          -7.77962411014993  -11.08871012890817    4.30318072005736
C          -8.12448866342415  -15.57775527302909    0.28090651687473
S          -7.81590146673429  -15.99274386281328   -1.39163764304722
C          -8.45675336372300  -17.60734155653599   -1.21663646421491
C          -8.87483670098339  -17.79345703151285    0.08815161017860
C          -8.69435164505274  -16.66465634676545    0.91847674610438
C          -9.19101664752559  -17.00157515337449    2.26915041339932
O          -9.23963270088143  -16.35225222622906    3.28024055123921
N          -9.62421576152269  -18.31383696459052    2.15389436630754
C          -9.47190907408956  -18.87357929716138    0.89541324743203
O          -9.76677182728199  -20.00451292100071    0.60680954680316
C          -8.52674513386895  -18.44273261899101   -2.36265336137070
C          -9.04490804994711  -19.69432851358548   -2.36731662375327
C          -9.15272925539461  -20.52437187976826   -3.51701324883437
C          -9.31097252603858  -20.20624013475559   -4.82840113423527
C          -9.05498849553581  -21.27522208485452   -5.84473210078118
O          -8.92608498189620  -22.45479623098985   -5.62381869329941
C          -8.94332039992768  -20.56994593994624   -7.13366871567017
C          -8.59276171461367  -21.06879567040330   -8.35558278275743
C          -8.51895734948332  -20.19080265629648   -9.45931578928531
C          -8.79947123544713  -18.80586813101510   -9.27019262258604
C          -8.71243066703939  -17.93221784844929  -10.37293354295928
C          -8.36817018662683  -18.41164050320519  -11.60551710970896
C          -8.09401834881974  -19.78235773539552  -11.79200124611085
C          -8.16732853062364  -20.65438544149526  -10.74217443427197
F          -7.75863634318699  -20.22282990305893  -13.01042804556085
F          -8.28706985922714  -17.58152489437197  -12.65169205262054
C          -9.16499125586868  -18.31993431002382   -7.99433434499329
C          -9.24829862157304  -19.19240166515121   -6.94137432118085
C          -9.62565583408929  -18.98367982668081   -5.54386820450546
C         -10.34451123565515  -17.91106718237905   -5.08862822268004
C         -10.86881899210563  -17.77556085862349   -3.78767773963525
N         -11.32895505143160  -17.59504747394721   -2.75189176414280
C         -10.70994551808977  -16.81329672473256   -5.89887426655403
N         -11.02717360393658  -15.89288888024662   -6.50568824994706
H          -3.76833433291012    1.97396377079976   -4.28441139390797
H          -4.72748781614811   -2.25286145038171   -6.69291822202367
H          -3.90348904081908    0.81673575418805   -2.14919613610846
H          -4.87819205151211   -3.46467091646329   -4.51337060941396
H          -4.49318731770134   -3.05247228413550    1.73095521898063
H          -6.62783569873775   -9.74914784860152    2.43361007342643
H          -4.91867983288653   -8.72283062112880   -1.40662668024576
H          -6.87772294290269  -13.33436068226853   -0.97790314027362
H          -8.50242858380397  -14.37543847833372    2.89754763565078
H         -10.02317889084437  -18.82218815556868    2.93089277375510
H          -8.12121018535439  -18.01735218914377   -3.27271828458247
H          -9.35335937688731  -20.13993351211208   -1.43015101042737
H          -9.06790959340371  -21.59225228078094   -3.33078354752781
H          -8.37412766854402  -22.11869123769889   -8.47709315895934
H          -8.92289998148097  -16.88145715011774  -10.24885764059411
H          -7.95424474571275  -21.69986025255853  -10.90093316065157
H          -9.36034775723911  -17.26577089731652   -7.88052345528001
