119
 SCF done       -249.249439953318          0.000895127528
C         -12.56477971202128    3.78246833011160   -4.61712375544445
C         -13.46912226929038    4.70290959154723   -4.16749766383550
F         -13.77321474830369    5.76920047939623   -4.91663479130326
C         -14.09242704984944    4.54316653993437   -2.91241448864146
F         -14.97327012217537    5.46166364729440   -2.49843630765367
C         -13.80181363375614    3.46473941011854   -2.12462693620926
C         -12.87406326998824    2.49813701821542   -2.55966642838930
C         -12.24337694782088    2.65861970483245   -3.82884487801581
C         -11.31300999158492    1.70017113097003   -4.28802430542332
C         -11.02684124511897    0.61283158703631   -3.50376629257786
C         -11.66308907581740    0.45881806581437   -2.23749662079066
C         -12.56008467318039    1.37311622237115   -1.76568136157296
C         -11.19371266781244   -0.78593521169008   -1.60534452732586
O         -11.29895061102184   -1.13077157270725   -0.45332294877841
C         -10.42146347431674   -1.48803663918294   -2.68141011306278
C         -10.14390604177239   -0.52343645258793   -3.73347842809482
C          -9.20769462771394   -0.64746635458339   -4.72190119964613
C          -8.32064716407945   -1.74118454998135   -4.81811520982991
N          -7.57197970630236   -2.60652913210133   -4.90647955332833
C          -8.97734721874165    0.32653153853054   -5.71741366718237
N          -8.75188777602355    1.08697256775681   -6.54591448353444
C         -10.16995130386063   -2.81378068826939   -2.68118665830376
C         -10.68858064071897   -3.74549497759533   -1.72215913716525
C         -11.97629517474049   -3.89192782294256   -1.24422372014891
N         -13.13073015742807   -3.14347392502449   -1.55564307133314
O         -13.04686996123253   -2.23579731930549   -2.37063960613519
O         -14.16675690963746   -3.47232590596507   -1.01396381674336
C         -12.04706913327263   -5.07012669927236   -0.40815333420360
C         -10.84015528396596   -5.67950344155018   -0.41523558285001
C          -9.93324142875126   -4.90308493492483   -1.22713025208747
C          -8.58508227285491   -5.10871331872598   -1.41601841687655
C          -7.61293418235354   -4.09167383807012   -1.66056520218677
C          -6.36728135101620   -4.61561638488022   -1.47177232199025
C          -6.48631718971760   -6.01082125563245   -1.18497456941616
N          -5.36533842967393   -6.84269443742670   -0.99913206381657
O          -5.54134606195917   -8.04061128622983   -0.83641395252320
O          -4.27214758823960   -6.30874635813106   -0.99827767317615
C          -7.83790337473321   -6.37078183821158   -1.19370814944705
C          -8.34391438407301   -7.67623095937184   -1.17073602465409
C          -9.57040685066052   -8.06397823703607   -1.65617071418794
C         -10.03919955429956   -9.38259600188011   -1.62854051386248
S         -11.58764783254444   -9.78649387027694   -2.31791025832412
C         -11.40095330527546  -11.47848427098581   -1.95390593953149
C         -10.17483692637395  -11.70188451011475   -1.29956795410571
C          -9.41677963178784  -10.53991820217414   -1.12390284158725
O          -8.19265458276440  -10.54650820845318   -0.55785356722786
C          -7.62918521292439  -11.84751145044424   -0.48684011747259
C          -8.66274762180644  -12.85114375001915    0.02106652683320
O          -9.78219851580425  -12.91107879310592   -0.85142298528859
C         -12.38888754452546  -12.39474024175603   -2.32314751436693
C         -12.23126333882399  -13.75864735502190   -2.25414275724967
C         -13.17570829909502  -14.69939079150599   -2.68145548692852
C         -12.90463948634233  -16.00606306946501   -3.11243693505087
N         -11.68202742460505  -16.68316474541837   -3.10719171010312
O         -10.69883239366664  -16.14056391675225   -2.62012506428532
O         -11.65067144508801  -17.79017873344175   -3.62461779597795
C         -14.08032440795749  -16.55502078343774   -3.71329055484435
C         -15.07050115248538  -15.61952923637778   -3.68956773848145
C         -14.59768626890992  -14.45874362973949   -3.00134022032214
C         -15.37504312062616  -13.40057198812914   -2.57607827415820
C         -15.23343787723426  -12.68222245200106   -1.33528075466031
C         -16.35874187258317  -11.95595165600776   -1.12513200315265
C         -17.22702671218677  -12.11239204437762   -2.26636831715895
N         -18.45888568221147  -11.43568725315351   -2.39156325968875
O         -18.81251942268324  -10.74944187103708   -1.45170993395903
O         -19.09749439207778  -11.58756359611893   -3.41760812572974
C         -16.64571352043745  -12.97367265481702   -3.17896873668971
C         -17.10486657389271  -13.29240895876474   -4.49471468067618
C         -16.31024557516909  -13.51921280146302   -5.56771242467861
C         -14.90024179010711  -13.26140127595933   -5.57126139368046
C         -13.86004007837024  -13.93162086473402   -6.12407975936133
C         -12.49398533930969  -13.53770986309960   -5.66322586137568
O         -12.19009894282873  -12.48179354993490   -5.15005301346764
C         -11.65436666275830  -14.72464238316119   -5.85986038575546
C         -10.36951166099417  -14.94373109362513   -5.44807596844648
C          -9.79382311908039  -16.21786940135904   -5.64290401178567
C         -10.56173623233084  -17.24293885053449   -6.26969457257694
C          -9.99764070051732  -18.52374728527797   -6.42506454804641
C          -8.73369093835665  -18.77706431556460   -5.97155624959829
C          -7.97648276081541  -17.76313029661326   -5.35019418877410
C          -8.49246612574983  -16.50794472620178   -5.19193468280255
F          -6.74000166480124  -18.03986567499303   -4.91798283865398
F          -8.19711781784330  -19.99348710651008   -6.11744900501005
C         -11.87923645034441  -16.97951530798354   -6.70813957126684
C         -12.42040724646810  -15.73723946151113   -6.50731083685312
C         -13.73900192802147  -15.19662264513356   -6.83055314151719
C         -14.60334020088899  -15.74359762668749   -7.73661881943168
C         -15.76825750126608  -15.11137119523601   -8.21250314779265
N         -16.70815035204548  -14.61928423250425   -8.65050515642789
C         -14.38648276634884  -16.97989121035060   -8.38487176908636
N         -14.27452447132085  -17.98035214478630   -8.93431370287132
H         -12.09725733944483    3.92018256972008   -5.57959735879393
H         -14.28838566456113    3.35622931020930   -1.16803947418482
H         -10.85793056922361    1.84107472083780   -5.25562626015908
H         -13.03330688191325    1.23311327825911   -0.80606055344993
H          -9.56581869726837   -3.24938135736948   -3.46791826409005
H         -12.93707239405524   -5.36550220342951    0.11339300293494
H         -10.55082873387934   -6.53592311181156    0.16142214089849
H          -7.83984535868155   -3.05765959436645   -1.82957711717332
H          -5.42827753564475   -4.09728858750242   -1.52456574446794
H          -7.66233326664362   -8.44344208475572   -0.82604965455794
H         -10.21554808661873   -7.34336085913012   -2.14002539188920
H          -6.77960244521048  -11.77149299556697    0.19098724552522
H          -7.28109692385568  -12.14693012710920   -1.48278907191527
H          -9.00170022143898  -12.55485073960541    1.02166637182848
H          -8.25364246745967  -13.86089577711632    0.05427778734224
H         -13.28337889969528  -11.97243751974919   -2.75794479706091
H         -11.26562068802690  -14.15105935493332   -1.96423271469516
H         -14.13395388654221  -17.55253520222325   -4.10753014139690
H         -16.08113852646292  -15.75813766120463   -4.02060822076120
H         -14.42316410839243  -12.82433695345283   -0.64711659649878
H         -16.60781119403916  -11.35393186929351   -0.27235756898215
H         -18.17926835763046  -13.33126174993268   -4.62136983170459
H         -16.77421749251793  -13.86325760270845   -6.47998037393810
H         -14.58810591850467  -12.40634212379992   -4.97527096115637
H          -9.81034355222367  -14.16321085020893   -4.95539858041872
H         -10.56698785673766  -19.31266964036809   -6.89011089375419
H          -7.90702046989557  -15.74598352516082   -4.70273734111973
H         -12.43853431289327  -17.77983333331919   -7.16444884458847
