117
 SCF done       -237.662873330301          0.000421101779
C          -0.74466524696947   -4.24210992485053   -3.93610129617812
C           0.05100805614783   -5.00933028546272   -4.74003737691623
F           1.20687633054644   -4.52271838975265   -5.20570297613590
C          -0.33379539156824   -6.32013086313460   -5.08934075064875
F           0.46451007815825   -7.04967802761564   -5.87871810066642
C          -1.50935147308193   -6.84463461847110   -4.63040623864530
C          -2.35237165787823   -6.07823989674443   -3.80197293035345
C          -1.96329115529679   -4.75360996758006   -3.44615469633845
C          -2.79284954060612   -3.96691010095007   -2.61550048325057
C          -3.97538453044913   -4.48772171374002   -2.15978738493718
C          -4.36342150531328   -5.80810888842756   -2.52845911411201
C          -3.57805346494421   -6.59241741550970   -3.32487594583112
C          -5.68606290058215   -6.11339051839478   -1.95478308817425
O          -6.32155151869830   -7.13930266597728   -2.08068159268393
C          -6.10974374588164   -4.86854067883209   -1.26432839474613
C          -5.00958633564798   -3.92030187715060   -1.30477773760552
C          -4.93101667190274   -2.76101590037624   -0.58605918731384
C          -5.91386656786426   -2.36101832940202    0.34602715461324
N          -6.66347661199218   -2.02873639567416    1.14842347116293
C          -3.83614151339918   -1.87235587424076   -0.63903137469829
N          -2.96828083211102   -1.12237963232354   -0.65410664726003
C          -7.39145933720447   -4.62745320063257   -0.89711476392082
C          -8.40793835080230   -5.63604475346422   -0.87525067525076
C          -9.58145902583885   -5.62275729290146   -1.60533862376350
N          -9.95211976134948   -4.59909804105008   -2.49372554463356
O         -11.04700557977004   -4.66526489776999   -3.01776617193854
O          -9.14330289053333   -3.70153642950119   -2.68350977077805
C         -10.30413085007324   -6.84696471800120   -1.38856327728995
C          -9.56498572296373   -7.62789500705373   -0.56295791185888
C          -8.36057133633002   -6.91934287607774   -0.19350012971617
C          -7.43681863765922   -7.28180574926379    0.76766823272139
C          -6.71610434392017   -6.40462025233674    1.62135572328818
C          -6.18970807735488   -7.13269080928708    2.65406130679079
C          -6.48375356112855   -8.51464210643209    2.45555840654010
N          -6.04905336256839   -9.52129199029821    3.31965982204697
O          -5.34802713493658   -9.19756488010507    4.26473322748144
O          -6.40093471482549  -10.67592069965822    3.10258963523129
C          -7.19317540582585   -8.65903024567978    1.25427618425415
C          -7.46080349411269   -9.83270342852101    0.55045297134672
C          -7.71744979530315   -9.87203572462812   -0.80510038984408
C          -8.09686548263155  -11.02836899227742   -1.48524808749041
S          -8.40084579381731  -10.97789297030428   -3.20018912279828
C          -8.85585745588893  -12.64187594186079   -3.28650481255452
C          -8.76135591104991  -13.23408959922909   -2.01934835787959
C          -8.32251395973783  -12.33604747160527   -1.00555651074829
N          -8.11430356543840  -12.75515045244924    0.25100434681662
C          -8.38803701142910  -14.01146751350896    0.51837679376585
O          -8.14510121608006  -14.51947419568017    1.71042515500488
C          -7.43540173719009  -13.71327592809334    2.65986383233761
C          -5.94368439742490  -13.69382363964287    2.37026921825162
C          -8.94490181386219  -14.89978207538612   -0.48211680725025
C          -9.32612127616666  -16.30613311378565   -0.13124389289695
N         -10.33249544902632  -16.31886330607390    0.91759546147075
N          -9.08157747615719  -14.51105914796674   -1.71248012998714
C          -9.27856071213224  -13.24665825679590   -4.51704178352078
C          -9.73878445167883  -14.56612985019966   -4.54086697725990
C         -10.13626569250093  -15.14594038651743   -5.73061336312696
N         -10.65285167397300  -16.49334732391143   -5.67136271771353
O         -10.41611292077035  -17.13646670453551   -4.67320924369128
O         -11.28961720945250  -16.89654044191835   -6.62068327687185
C         -10.09423263817680  -14.45251321848687   -6.95304918571816
C          -9.62178278262922  -13.13317583713832   -6.90992125884304
C          -9.23381876235945  -12.54197747858640   -5.73063595919672
C         -10.43563705968240  -15.07612723844798   -8.21885397244405
C         -11.18780496197192  -14.52359554094741   -9.19621866532832
C         -11.88126775732517  -13.28923479958902   -9.05394186847187
C         -12.53728520915803  -12.55433361002969   -9.98937259544753
C         -12.82878332639685  -11.12621642564606   -9.65703944037090
O         -12.78241102488788  -10.62485251320261   -8.55791091445948
C         -13.08697690105385  -10.46795732040486  -10.94949752367094
C         -13.28678910989458   -9.14226074788125  -11.21102870750961
C         -13.46678487137468   -8.72593531460687  -12.54838231155950
C         -13.42565100802356   -9.69529788590803  -13.59280467846295
C         -13.59243183678908   -9.27285716369020  -14.92717059459702
C         -13.79382731465136   -7.95130646487257  -15.21071796251526
C         -13.83700974581730   -6.99354377838396  -14.17656525679332
C         -13.67735083576445   -7.37125063783663  -12.87288531146238
F         -14.03446754673041   -5.70609412614489  -14.48516076218549
F         -13.95143279601148   -7.55152797535230  -16.47812737992841
C         -13.22401460410021  -11.06117539555436  -13.29060421069586
C         -13.06721724807510  -11.44535197826314  -11.98523267978028
C         -12.88551625941218  -12.76591610772846  -11.38232035992111
C         -13.20666308631353  -13.94655855314167  -11.99306729270797
C         -13.29131058104265  -15.20061476422292  -11.34996224919994
N         -13.42486684922939  -16.24134958710018  -10.88658210435698
C         -13.60270484797095  -14.04478838662892  -13.34539840489759
N         -13.91261182118078  -14.18767478915550  -14.44074083919258
H          -0.43497520881592   -3.24161324519650   -3.67747242339243
H          -1.78924777865251   -7.84877925751023   -4.90801578964637
H          -2.47855745179552   -2.96575141791644   -2.36747122869090
H          -3.89029569670401   -7.59076508425857   -3.59161882898461
H          -7.71167718139997   -3.61447603456911   -0.68175045414542
H         -11.25855442407317   -7.06166213483556   -1.82888859034616
H          -9.85410815508276   -8.57486907739048   -0.15039417176611
H          -6.71223049663858   -5.33431042086763    1.53886082574660
H          -5.64553858122894   -6.75734155346220    3.50079194663668
H          -7.39409319805823  -10.77035982475934    1.08771069715194
H          -7.58300622943059   -8.97812292776746   -1.39998928990239
H          -7.63929901244895  -14.18173482462045    3.62399902573416
H          -7.82889517367007  -12.69507929095231    2.64909289630962
H          -5.52272616657149  -14.69410825682587    2.43700083231140
H          -5.46152222115766  -13.04536874772047    3.09355961661949
H          -5.76095564397462  -13.29312313573742    1.37633232978607
H          -8.39747443207217  -16.83955645685378    0.14441254407740
H          -9.74500866945358  -16.77673455468448   -1.02389758743426
H          -9.95274888232672  -15.93623081491114    1.77704628812926
H         -10.62779969591321  -17.27084568069169    1.10019091187098
H          -9.79617630091840  -15.13363824750923   -3.62368933276967
H          -9.53233140403314  -12.58340799671111   -7.83412440167080
H          -8.87859167817361  -11.52216119181377   -5.73705742553111
H         -10.02630463852708  -16.06247918386284   -8.39245883459005
H         -11.28248864971398  -15.06435049149088  -10.12433479070990
H         -11.82938527206564  -12.81143115174988   -8.08070060352895
H         -13.30499138525403   -8.42161594987307  -10.40770011023943
H         -13.56644303457527   -9.99295879642474  -15.73005739353147
H         -13.71272227809329   -6.62646482386577  -12.09331970635137
H         -13.18835748446987  -11.76876940669473  -14.10318774574165
