130
 SCF done       -263.521389056993          0.000999801187
C         -10.46768592570654   -2.32342959464846   -6.62007849514660
C          -9.75126210179601   -2.62102973605053   -7.74561352118182
F          -9.75881155489828   -1.78511231005649   -8.78875586952412
C          -8.99662893904641   -3.81016363765449   -7.82246838064626
F          -8.30551542120994   -4.07663738739816   -8.93639980909490
C          -8.96973009133116   -4.68477225833765   -6.77250797965553
C          -9.69842232284305   -4.40689097411134   -5.59942511419869
C         -10.46044381150942   -3.20422914395143   -5.51984317435191
C         -11.19676085566354   -2.90358684550299   -4.35157530405261
C         -11.17192532447527   -3.77862042842064   -3.29738241652457
C         -10.41634969079739   -4.98299649242539   -3.38786296998026
C          -9.69349632997703   -5.29761550352029   -4.50381700954078
C         -10.57905137187876   -5.76567700205958   -2.15118452004328
O         -10.09604025534570   -6.84792344745287   -1.89874153471693
C         -11.52482521004364   -4.98005283447908   -1.31159852405208
C         -11.80736055476724   -3.72577715708515   -1.98742034322833
C         -12.45874529477779   -2.65629345832345   -1.43880748919024
C         -12.89728863070471   -2.62055140847397   -0.09679708139098
N         -13.21463293367991   -2.53080488276963    1.00204704341897
C         -12.70287649046061   -1.44552388682636   -2.12174942721343
N         -12.92719819101687   -0.44695342076528   -2.63944740621670
C         -12.15904519747637   -5.48892485541976   -0.22531983844828
C         -11.79212869957421   -6.70366420581698    0.42621577582034
C         -12.62778745926666   -7.76029343302335    0.72764977425979
N         -14.00665798536565   -7.81568752203098    0.43803165814011
O         -14.63462422002746   -8.76435256103843    0.86126566931948
O         -14.48155423037932   -6.89634264916700   -0.20915874936909
C         -11.86513809325473   -8.83542806761011    1.30632006552301
C         -10.55974179639928   -8.46815280111656    1.31995081492091
C         -10.44089050938720   -7.12888610362706    0.80179938788338
C          -9.32661228014317   -6.31171720593678    0.81998230330313
C          -9.33754978514929   -4.89979030156863    1.02044117583516
C          -8.05571006890208   -4.47093169363673    1.23173427277411
C          -7.17037342732863   -5.57797615605780    1.09377560076295
N          -5.77149357400516   -5.44818840534904    1.17431689787830
O          -5.32765870974432   -4.34594002909607    1.43489651739260
O          -5.07938705817647   -6.43880488869484    0.98826224763022
C          -7.91464571151297   -6.73262364174054    0.79988651667250
C          -7.39264222906955   -7.96261305099301    0.37878631167561
C          -8.10874877095114   -8.90082038173034   -0.32770125786049
C          -7.70487928553047  -10.16136963981993   -0.78269302027667
N          -6.48248103363840  -10.78438797630010   -0.78465901012515
C          -5.21481815457582  -10.29063663510144   -0.29174212575803
C          -5.07851081269187  -10.48700870476883    1.21567070164109
C          -6.55090092897125  -12.07157703799681   -1.36227111133738
O          -5.60082325136880  -12.80694481100433   -1.50320703078467
C          -7.95103466162473  -12.23107767708189   -1.71517926813990
C          -8.62289902014998  -11.06954299768426   -1.36792867599198
C         -10.03472927734004  -11.26149327304266   -1.67297262326875
O         -10.99860833084134  -10.55556124252141   -1.50036442482519
N         -10.09713606460962  -12.56028338300033   -2.23307550980146
C         -11.36617950832903  -13.09763743077407   -2.67030604721798
C         -11.51508098362140  -13.04052187276272   -4.18778178430572
C          -8.86855143772301  -13.15954792429037   -2.26579460036476
C          -8.44029171586837  -14.41425036919348   -2.70627158202805
C          -9.16461603899966  -15.46346210403857   -3.21790514349892
C          -8.61693096479379  -16.70796694994619   -3.55570160316944
C          -9.32873983484552  -17.92225469317356   -3.60857057011103
N         -10.69750811278170  -18.12369457493369   -3.38215050896817
O         -11.06146320215889  -19.26952378434125   -3.16422063260514
O         -11.44989048777179  -17.16022131572248   -3.37301260006416
C          -8.40956114933561  -19.00177637033101   -3.74504600938467
C          -7.13726511149927  -18.50274611860873   -3.71056756985942
C          -7.19667204595277  -17.08245601574812   -3.60794748690121
C          -6.08248729608305  -16.24820361489498   -3.61057113476672
C          -5.88590416895002  -15.04053027954255   -4.33435597261619
C          -4.57214105874416  -14.67945649047030   -4.23211297199371
C          -3.90692455176989  -15.60188090854153   -3.36004971545584
N          -2.56191009214699  -15.44698540340187   -2.96520208580564
O          -2.10934765980665  -16.21849860301268   -2.13790235196103
O          -1.92849767765707  -14.55304814775727   -3.49276105683202
C          -4.80521772428972  -16.57684306556001   -2.94570378675097
C          -4.60588016121149  -17.57520887702842   -1.95733413403270
C          -5.56044487340777  -18.11211504702135   -1.14725060310663
C          -6.88047929953138  -17.59678701939350   -0.99084577739445
C          -8.05477618062252  -18.20846618319370   -0.67765971131750
C          -9.23452351416346  -17.33216363292851   -0.43912490233149
O          -9.24037164979162  -16.11740466049392   -0.49605257990492
C         -10.35726544214172  -18.22790554487691   -0.15368598713071
C         -11.66670891129851  -17.90832927237463    0.07054045075142
C         -12.60066924509309  -18.94640801246523    0.26954042229942
C         -12.15220346012910  -20.29879040439364    0.24309516075440
C         -13.08775476721930  -21.33418331408169    0.43980944739166
C         -14.40596247361563  -21.03972186152554    0.64815097497749
C         -14.84849687501648  -19.70086289126202    0.66968078742769
C         -13.96557072262649  -18.67429909643724    0.48461576604662
F         -16.14541675047671  -19.44378685979264    0.87750492718569
F         -15.29372972383423  -22.02294834440180    0.83647803025181
C         -10.79253258045169  -20.59741576868070    0.00430942840715
C          -9.90193077344688  -19.57688987259349   -0.20420764850034
C          -8.48911027370301  -19.59144191218223   -0.58255037550329
C          -7.79420535945266  -20.72486269435368   -0.91105188542591
C          -6.53882603751090  -20.79449343180785   -1.54825740686771
N          -5.56415730558306  -20.96185975312988   -2.13228140301581
C          -8.29119353028455  -22.03711654016035   -0.73933688842270
N          -8.60260131461658  -23.13319330298970   -0.60437697022030
H         -11.03840765550847   -1.40895430503386   -6.57766784782854
H          -8.38782947007890   -5.58996567728208   -6.84779239635214
H         -11.77006379399965   -1.99094535165368   -4.32114128838100
H          -9.12732589651065   -6.21550637173182   -4.55009479974620
H         -13.05819569637791   -5.00650027381518    0.14285814588954
H         -12.29839509502205   -9.75720703541995    1.64304745823057
H          -9.74579082970845   -9.02242776326469    1.74522772755112
H         -10.22550213796324   -4.30500720525363    1.12046820599970
H          -7.73238378315730   -3.47338928752891    1.46340372307105
H          -6.34218118633823   -8.10592982719154    0.58635544283054
H          -9.12430256811952   -8.65907589908645   -0.61335058041270
H          -5.09442615419792   -9.24218828829948   -0.57015850712862
H          -4.44421690719765  -10.87667163763109   -0.80077307879221
H          -5.90100484983653  -10.02071088739000    1.75303096971166
H          -4.14741628749671  -10.04297322347882    1.55429409064101
H          -5.06697106871030  -11.54776608234249    1.45377576926223
H         -12.13320230357390  -12.47073646270308   -2.20655264119227
H         -11.47650463764439  -14.11769295783399   -2.29687135851660
H         -11.50828031918940  -12.00677549436394   -4.52500065387430
H         -12.45853619102832  -13.49433632349942   -4.47572406796284
H         -10.70827454711235  -13.57362448486055   -4.68518370096221
H          -7.37888237794624  -14.55516159111836   -2.54953149091188
H         -10.24037376516948  -15.40344563756186   -3.29024536352587
H          -8.70372848343094  -20.02830388483942   -3.85988341010785
H          -6.23004894356874  -19.06303769299464   -3.82855413875923
H          -6.63136679343391  -14.57519693891562   -4.95046881265394
H          -4.08285180467966  -13.84707744389864   -4.70090449904497
H          -3.58296765909717  -17.90944442585550   -1.83487146428827
H          -5.27502223557515  -18.93937649057858   -0.51327643130903
H          -6.97595418117291  -16.51522854681402   -1.06851621833754
H         -11.98549020126395  -16.87712489422380    0.07714640194543
H         -12.76754538883583  -22.36413176701715    0.41998469543708
H         -14.32002466235714  -17.65563730277900    0.50011982774519
H         -10.49497814738661  -21.63240506759273   -0.02108733812349
