122
 SCF done       -243.856484844100          0.000367304952
C          -5.77678576527902    0.80452292733355    2.82785745904009
C          -6.71355972013525    0.51391484676060    3.77763371728221
F          -6.97376352648554    1.39004362781640    4.76078849051427
C          -7.41918133154037   -0.70468795443811    3.74376931638163
F          -8.35618895322299   -0.94810026508599    4.67675897748571
C          -7.15203477622542   -1.63391033071881    2.77906710495059
C          -6.16330144926769   -1.38107464270778    1.80659485380294
C          -5.48133123954420   -0.12891622727174    1.81376419180121
C          -4.52095407639794    0.16553129886201    0.82079730835202
C          -4.21490250850555   -0.78467520871494   -0.11775320868630
C          -4.84507312729018   -2.05962786083764   -0.07153813931273
C          -5.81909466755141   -2.35126060365165    0.84112278318657
C          -4.25817337083161   -2.94126417052782   -1.09439141213965
O          -4.52343547012462   -4.10610051574333   -1.28878161938751
C          -3.20707448025366   -2.12183783534152   -1.77073486815524
C          -3.28854911503799   -0.76675602692394   -1.24190757974283
C          -2.73178533669901    0.34166588651673   -1.80788176302401
C          -1.95145829085616    0.32469019330636   -2.98545745989154
N          -1.32864492604255    0.37931290684730   -3.94701158905262
C          -2.94358319640894    1.65277321408282   -1.32816698454128
N          -3.09216862847036    2.73587139322908   -0.98083316723777
C          -2.27281390339938   -2.60592619900582   -2.61779953347713
C          -2.31339609373406   -3.90894567946817   -3.22981986993726
C          -1.20509490908157   -4.75241517625906   -3.31006952856893
C           0.06730844838355   -4.46652870279979   -2.71607850261805
O           0.32347216236764   -3.49506758945316   -2.04112331861905
C           1.17650269887531   -5.52199816523248   -2.99106754320466
F           0.84879481087319   -6.72320636260724   -2.48280123981009
F           1.37513945866776   -5.70384567632938   -4.30783747227771
F           2.33959345747229   -5.16900041334358   -2.45775937155650
S          -1.58257236974705   -6.22203477545986   -4.15229112292218
C          -3.18441084263938   -5.70856347847076   -4.39620988649538
C          -3.46018620305726   -4.46792465493913   -3.86634092389593
C          -4.71430573601748   -3.76689578959707   -3.92074689565750
C          -5.92911253695453   -4.33633554741065   -4.04703797349848
C          -7.12019736500715   -3.55866626405929   -3.96670619250788
N          -8.37578281806314   -4.08268238197488   -4.13664187992751
C          -8.71581417014959   -5.47707322735253   -4.28064632516648
C          -8.64785115058558   -6.20446382737432   -2.93999015762587
C          -9.37712199737336   -3.10322277612984   -4.02739443326829
O         -10.56186115396459   -3.34104096811091   -4.14543784675370
C          -8.64845568378735   -1.87812288549628   -3.77545716112519
C          -7.26378806877029   -2.19281303829173   -3.73100707611929
C          -6.55233030112566   -0.97522460710885   -3.42309553886100
O          -5.37023582911049   -0.74817398310932   -3.21445476396639
N          -7.54494154131665    0.01054524619732   -3.35486709016226
C          -7.21694528686477    1.39193276955067   -3.09224051015198
C          -7.07876629707089    2.19535749201171   -4.38243379911924
C          -8.80040092445640   -0.51344235377172   -3.56352677690911
C         -10.01011183895889    0.23649895926940   -3.56758145658677
C         -11.20629118016276   -0.38854125250092   -3.48190671979441
C         -12.50584770757411    0.21791836673011   -3.62529398439090
C         -12.68688502288070    1.25731929499718   -4.55202695445340
C         -13.96182397760960    1.68055006330295   -4.83446396031670
C         -15.07668050058861    1.07739917213986   -4.23442501655876
C         -16.29535074924948    1.72393872217092   -4.77783214326047
O         -17.45355666307970    1.50696004727150   -4.53027416344963
N         -15.83514681584879    2.67548407617096   -5.67794456994702
C         -14.45286980780239    2.72356660964589   -5.76931543114668
O         -13.82785996005214    3.47035267021381   -6.47789145566715
C         -16.71190026898149    3.56586592111853   -6.40919089146778
C         -16.96961373457836    4.84958744745393   -5.62829592422330
C         -14.92581329961132    0.07850047053947   -3.30455976359578
C         -13.62815887527358   -0.32996486500892   -2.95068188365825
C         -13.49632033246065   -1.19879887154620   -1.80834286463855
C         -12.45875575763332   -1.15527945240837   -0.93862713214724
C         -12.49728615791349   -1.75826733069640    0.34528290070693
C         -11.68329860782925   -1.40624645564195    1.37989032283932
C         -12.12143208952728   -1.56149233193289    2.79764381787484
O         -12.91856083211755   -2.35561121915928    3.23252268864106
C         -11.43484305508665   -0.46449378045180    3.51644892012802
C         -11.59321414245546   -0.04943426551351    4.80646217622404
C         -10.89142228714551    1.09371323540638    5.25253336341704
C         -10.04537484771156    1.79924674672465    4.34765236374580
C          -9.38949281022520    2.96545716072086    4.78832690927798
C          -9.54412994260061    3.39743532315487    6.07541212410136
C         -10.36318504572919    2.68722064865175    6.97590371362204
C         -11.02616962875713    1.56150710724090    6.57333354453517
F         -10.49598076067273    3.13226276032266    8.23151396080916
F          -8.92350982968750    4.50697898874432    6.49166453615165
C          -9.86430881609991    1.32159910102097    3.02948944628319
C         -10.54253377497307    0.20334383623231    2.62613042947776
C         -10.53809973639057   -0.52411287143864    1.36645429861419
C          -9.53089852019493   -0.54603164818779    0.43459937211799
C          -9.40610253429946   -1.59416965003919   -0.49734820304204
N          -9.21399126340517   -2.48534169025216   -1.19547017550108
C          -8.46985709812600    0.37322393356144    0.39209964435533
N          -7.61618217084089    1.13308589882695    0.27479900930297
H          -5.25973599661649    1.75046614271632    2.85781380140178
H          -7.68970528035682   -2.56970297001061    2.77338135587302
H          -4.04071804060990    1.13069159329425    0.83390151825474
H          -6.30620930971688   -3.31463536761823    0.83517618301336
H          -1.40316943215493   -2.00637663284538   -2.85852206830298
H          -3.86006881312249   -6.34111761920860   -4.93849153672608
H          -4.65483362785247   -2.69640214405239   -3.77946076819049
H          -6.02565000635236   -5.40473665290407   -4.16492448414278
H          -8.05722198132508   -5.94383530756579   -5.01834559063917
H          -9.74122665891166   -5.50031261721492   -4.66004169593105
H          -7.64390443925470   -6.16280934332580   -2.52351764899394
H          -8.93551881733004   -7.24451118912798   -3.06730506978186
H          -9.32991063809692   -5.73480689946438   -2.23583983168374
H          -6.26302274986460    1.38837161528123   -2.55761584622387
H          -7.97528154283147    1.82597995127123   -2.43595967848032
H          -6.29241977459940    1.76974054269362   -5.00098964630014
H          -6.81732554920264    3.22308692711621   -4.14763521944474
H          -8.00701950613712    2.18870005129499   -4.94986306142860
H          -9.94638576530063    1.31493551330157   -3.61145937986200
H         -11.21533527000629   -1.46225924189775   -3.34247033400647
H         -11.83968177160577    1.68301780295107   -5.06673355630042
H         -17.64846347073548    3.03084527354411   -6.58275898747000
H         -16.22831506940511    3.79085280772399   -7.36269634557116
H         -17.43861191439944    4.62136605191991   -4.67387300250486
H         -17.63014584728942    5.49839419870660   -6.19604982347520
H         -16.03399297658579    5.37397364166874   -5.44792296335749
H         -15.78820310819965   -0.36157050125550   -2.82731982278940
H         -14.36025881440353   -1.80305918974372   -1.56273369798221
H         -11.63089023088482   -0.49475239045375   -1.15523808369245
H         -13.33739238202971   -2.40008097034122    0.58185250371032
H         -12.25005200299606   -0.58015951546124    5.47829786010632
H          -8.75086887730101    3.51625181234349    4.11595863903284
H         -11.65339757945140    1.03275382248259    7.27368643434164
H          -9.20671420875346    1.85703429024864    2.36083532155195
