118
 SCF done       -235.561617406254          0.002162262214
C          -0.17993851593078   -1.70102121850439   -9.26256455745740
C           1.15717244822953   -1.42677978320509   -9.32243012565351
F           1.64554346861302   -0.66798004345474  -10.31179375483663
C           2.03823882609996   -1.93668845677491   -8.34681534762782
F           3.34359312189458   -1.64956717593398   -8.43070818292869
C           1.56961734943721   -2.71437190688253   -7.32522486796984
C           0.19636347392027   -3.01493748757645   -7.23492740251534
C          -0.69523696562065   -2.49887659382364   -8.22063484736855
C          -2.07642357499496   -2.78596249121750   -8.15117689731894
C          -2.55013214732395   -3.56678638328783   -7.12902435982721
C          -1.65228630406059   -4.08315228453846   -6.15086759194084
C          -0.31408083791329   -3.81690697499932   -6.18984330106944
C          -2.40641891168812   -4.89217605758356   -5.17558186156671
O          -2.03494356085007   -5.29911543662482   -4.10092915264627
C          -3.78589602326450   -4.99055637505748   -5.74335340820375
C          -3.89950246319858   -4.02773815923573   -6.82493257558297
C          -5.05342154140882   -3.60691819402408   -7.42900268695332
C          -6.34842578924643   -4.02225040173810   -7.05209684538542
N          -7.42462564691058   -4.31081677948726   -6.77455652523264
C          -5.09756367078928   -2.66027481823199   -8.47513436288583
N          -5.19547995975186   -1.89485862208298   -9.32431606811116
C          -4.72064822448370   -5.88230363808745   -5.34077484184233
C          -4.52760975573623   -6.96359560895244   -4.42839872723993
C          -3.50903083491775   -7.89388066554883   -4.34328559072183
N          -2.34856518226254   -8.01018371698984   -5.13736340777617
O          -2.21086184725093   -7.26682981350219   -6.09674125169081
O          -1.55862964056285   -8.88457417582634   -4.84050943570281
C          -3.87111160470963   -8.91174836828465   -3.38378897243986
C          -5.12527653389455   -8.66461942745975   -2.93454745843934
C          -5.59843807676810   -7.45153561019836   -3.54372199782837
C          -6.77852462310588   -6.77872005249221   -3.30954073375229
C          -6.96324716613558   -5.36768287088386   -3.39529955355164
C          -8.19408683343669   -5.06191607842158   -2.89870066600588
C          -8.88609900872955   -6.26960393837059   -2.55671529329972
N         -10.19993693562139   -6.19613877078200   -2.05702679611645
O         -10.74018557007153   -7.20295490310678   -1.62230024292871
O         -10.73608113700435   -5.10287804119799   -2.07048604122024
C          -8.05593372445070   -7.36634157179924   -2.83569149827785
C          -8.28435103684546   -8.73998017517848   -3.01430146603751
C          -9.43915125537910   -9.44553050645131   -2.77766075966396
C          -9.56822113383621  -10.78965948268177   -3.15719579763144
N         -10.72300630603880  -11.51889861181956   -2.99278532371087
C         -11.97592198777610  -11.01935872816153   -2.47149411350017
C         -12.72292083868551  -10.17299316142230   -3.49757589441034
C         -10.58805904924766  -12.84021914081455   -3.44561649967192
O         -11.46166501976666  -13.68008161774366   -3.38651147824931
C          -9.22116785344835  -12.90819159835746   -3.92232196580414
C          -8.62101485168302  -11.65281814299559   -3.74345672739689
C          -7.25445397788677  -11.75759007728589   -4.21061903652960
O          -6.35544510420302  -10.94717511983712   -4.28950786254370
N          -7.11344605289896  -13.10532578351418   -4.61297079831951
C          -5.85363828394059  -13.55073695753095   -5.16080137667032
C          -5.87180244727477  -13.57986807133964   -6.68655111026964
C          -8.28780905869865  -13.79939342793487   -4.47085930755710
C          -8.61673025752348  -15.14243862074892   -4.75346315667895
C          -7.85927423797243  -16.15952157697801   -5.24559004254903
C          -8.35946872613489  -17.47482979161905   -5.39267290488365
S         -10.02512445976190  -17.87508762593583   -5.03079033451915
C          -9.72688444412310  -19.56421358027398   -5.26042168441297
C          -8.41400101019608  -19.77576179034111   -5.68968474531733
C          -7.64736042625747  -18.60333004098676   -5.74608527459218
C          -7.90892747063527  -21.05510800821234   -5.99285205466769
N          -7.49994585339936  -22.09147426391532   -6.25811293004263
C         -10.68059900995700  -20.60326425308833   -5.03611552059912
C         -11.71385117485131  -20.62904967831107   -4.16257863998048
C         -12.10481399937479  -19.69666689412331   -3.15102087979963
C         -11.39311315140011  -18.85169155709497   -2.36306693574674
C         -12.12990841325724  -17.78008347263557   -1.62201278131240
O         -13.30493387588361  -17.77008782123028   -1.35430930623161
C         -11.11902493185492  -16.73424260910579   -1.36521816008088
C         -11.29635538384250  -15.47315785264691   -0.87450173490916
C         -10.18413229300996  -14.60532599646811   -0.79816345186262
C          -8.90898879881371  -15.05854265974929   -1.24343001853216
C          -7.82043991297212  -14.16319808258177   -1.23345053743235
C          -7.99096188943467  -12.87552920243757   -0.80862656299268
C          -9.24677228332572  -12.43550307209504   -0.34790491080492
C         -10.31855260126944  -13.28364491290965   -0.33178271520773
F          -9.38720974991628  -11.16321123634205    0.05313907676398
F          -6.96568827644515  -12.01151409548969   -0.84335341731310
C          -8.74807281212292  -16.38222918367363   -1.71184849516081
C          -9.83765078456861  -17.21017318963353   -1.76732070374585
C          -9.97390889479578  -18.59436624990245   -2.21416765017019
C          -8.95786051989817  -19.50522957378125   -2.33037060733118
C          -9.17615640368004  -20.88128412620650   -2.54355078437213
N          -9.32410622972044  -22.00906429741169   -2.69026217727748
C          -7.59516148717942  -19.15754737573493   -2.24252276907346
N          -6.47960786502417  -18.88586147717820   -2.23986638337847
H          -0.84098228362982   -1.30278198203647  -10.01646326844150
H           2.25739351226307   -3.09752034307418   -6.58785515008117
H          -2.72602407938559   -2.38797709768617   -8.91427788949345
H           0.34752579612156   -4.22111064661815   -5.43922368917607
H          -5.72047289380098   -5.81632604093399   -5.75235341602768
H          -3.22136571331724   -9.72121705370500   -3.11249700622813
H          -5.64505890929696   -9.21127596182026   -2.17273413033937
H          -6.20321964687930   -4.66628089628978   -3.67928660943752
H          -8.61977615468885   -4.08473675412518   -2.76744323113736
H          -7.45912127335395   -9.28034889636989   -3.45837153457119
H         -10.27626147450496   -8.96694495316762   -2.29410422863912
H         -11.78639675653055  -10.44109769425911   -1.56379605799408
H         -12.57012391519156  -11.90277239652905   -2.22266218168154
H         -12.14240871956531   -9.29812130314341   -3.77848090667018
H         -13.66510578930872   -9.83892114546962   -3.07353148460565
H         -12.92967543662406  -10.75874323178799   -4.39024517239091
H          -5.59856428180141  -14.52685618508439   -4.74169840983048
H          -5.10909554816686  -12.82274169979956   -4.82465372225017
H          -6.65071650508826  -14.23987481800033   -7.06180366256471
H          -4.90981298321874  -13.92145933077499   -7.05767339000112
H          -6.05364356530904  -12.57922613994176   -7.07069411289792
H          -9.65142739706411  -15.36169466822687   -4.51237825461080
H          -6.82273537144813  -16.02956217379512   -5.51576969954081
H          -6.60516056009151  -18.59138319094756   -6.01070843845699
H         -10.51800285627779  -21.48592088709895   -5.64388208483074
H         -12.37469509151363  -21.48426297987171   -4.23523160300733
H         -13.17586470976865  -19.66333708168190   -2.96339413568687
H         -12.27485521998594  -15.13487529803020   -0.57152095572195
H          -6.84785946813755  -14.49008502307751   -1.56722325415261
H         -11.27393525620332  -12.93021533293855    0.02255261059973
H          -7.76995163589211  -16.70325114549862   -2.03347897819707
