100
 SCF done       -214.694080149353          0.000686856748
C          -6.34746478326127    2.84349501202156   -3.43346499463761
C          -5.87828445846118    4.07097241172433   -3.05797149386470
F          -6.11771657143490    5.14483624325077   -3.82004786817906
C          -5.13781420959939    4.22295184605517   -1.86763920414919
F          -4.69007575511481    5.43737479773419   -1.52593581163606
C          -4.87633448979237    3.14456100968284   -1.06940592831156
C          -5.34428522042005    1.86600711299885   -1.43025156371100
C          -6.09492424762167    1.71149349654060   -2.63236861316066
C          -6.57706596520750    0.43887619479774   -3.01338737047860
C          -6.31765123151474   -0.64547756461418   -2.21622828021062
C          -5.55981078179080   -0.48379464966420   -1.02213493031128
C          -5.07978110944551    0.73277835623308   -0.62954063548123
C          -5.38821311146204   -1.79151451706803   -0.36303838173810
O          -4.70518982641064   -2.03270879476125    0.60630167800584
C          -6.10605451358789   -2.76833467735218   -1.22975412881808
C          -6.68910275947604   -2.04983357478408   -2.34791667985346
C          -7.51796317081175   -2.57597861058789   -3.30233676220173
C          -8.08925073413383   -1.82567913534771   -4.35242547004500
N          -8.57388548015563   -1.26743139863380   -5.23003198807888
C          -7.93986635225466   -3.92243660173338   -3.34713066362748
N          -8.33861460511514   -4.99557762173663   -3.42989269769397
C          -6.03853630389699   -4.11997585358179   -1.07397151253083
C          -5.62493061281604   -4.77686051074946    0.11090936342215
S          -4.89971478031977   -6.36855769339010    0.05843682209748
C          -4.72922344016107   -6.48492905613393    1.80645679579479
C          -5.25998657814892   -5.33283783821287    2.35998105988774
C          -5.74524588680211   -4.40148629861437    1.43293164275364
O          -6.31375107188385   -3.37668233466135    2.11455087590924
C          -6.15259256448839   -3.63962775140336    3.43659727463695
O          -6.52170295929251   -2.95288075574809    4.32491221405138
O          -5.51272046141405   -4.83798662070355    3.60385141009504
C          -4.13803581163921   -7.65837937305186    2.34235131918259
N          -3.84979449207796   -7.94969612542861    3.65097836262420
C          -3.93839466742639   -7.08260585340207    4.80331500417689
C          -2.81062026025465   -6.05541926250309    4.81926753352657
C          -3.29632810827299   -9.24381822516487    3.78474711221194
O          -2.96878381593020   -9.72369815490960    4.84852492759362
C          -3.25713120224305   -9.76498293609530    2.43716160325959
C          -3.77027018133091   -8.76668903331867    1.58037668738662
C          -3.73575978951443   -9.26855176193149    0.22766721685815
O          -4.05767004174492   -8.75761412150151   -0.82702002920465
N          -3.19931086984263  -10.55838446005733    0.35185237725603
C          -3.04285802919118  -11.41764032706429   -0.79788616293803
C          -4.17232250553076  -12.43931798245231   -0.89925993983331
C          -2.91188304410627  -10.87322099889077    1.66106299160284
C          -2.36442652639391  -12.10977788666595    2.07136356536315
C          -2.09576682260762  -12.40928515584104    3.37050872592813
C          -1.56153857761246  -13.65043787381519    3.77640381541524
S          -1.18053603141158  -14.95964257968034    2.66854999774687
C          -0.58614327835488  -16.04028215974330    3.91589370419262
C          -0.71305014098600  -15.38000944381366    5.12207565715039
C          -1.24345154135557  -14.08674283863936    5.04678989663324
O          -1.32283891338348  -13.59253010730824    6.31034864085893
C          -0.86473268873970  -14.55661671145679    7.14734824383107
O          -0.79607392641287  -14.47558834878121    8.32304539059171
O          -0.49232859506324  -15.66990564082542    6.42973615860241
C          -0.16397655622767  -17.34847942106990    3.60137720063452
C           0.51292216480645  -18.23691081696744    4.37960376813144
C           0.45427287879498  -19.68802009207813    4.02256285475769
O           0.07257158882664  -20.15437293541851    2.97629494024331
C           0.90083372927297  -20.39894227733355    5.23483423623491
C           0.91656900665488  -21.74139725313796    5.48490477174153
C           1.35775120475132  -22.19919762263994    6.74654204845895
C           1.76719509532170  -21.25279212371018    7.73111091295236
C           2.19513140176542  -21.71645099097815    8.99123853899050
C           2.22024699394579  -23.05642560139825    9.25992365193056
C           1.81805135005289  -23.99163530766443    8.28447107168762
C           1.39531490932584  -23.57338199080731    7.05381951424642
F           1.85292315230204  -25.29798417454703    8.57545302178126
F           2.62856245297368  -23.49571688099252   10.45609288627585
C           1.74839811846921  -19.86903341995352    7.44075354190783
C           1.33029530815528  -19.44972290393626    6.20669094506854
C           1.24088591720638  -18.11333639571075    5.62275636165150
C           1.94103696566161  -17.01730432426588    6.05320750560731
C           2.03119958487752  -15.82313488549259    5.31383756893108
N           2.11430057145185  -14.84751610750625    4.71424942027228
C           2.72547068257325  -16.99818973971956    7.22610596603580
N           3.37962564851332  -16.93821032511227    8.16620957703553
H          -6.91388823767599    2.74497908253475   -4.34639414403442
H          -4.30836210708717    3.27761089431695   -0.16197316031724
H          -7.13556494160546    0.35295959050929   -3.93145844259897
H          -4.50867200202336    0.82848553359122    0.28133564542044
H          -6.28433540830858   -4.77251405410892   -1.90175403799907
H          -3.85060186535683   -7.73784250797069    5.67428776161272
H          -4.91043105867695   -6.59068918502465    4.82477500218610
H          -1.84623257647620   -6.55667844335547    4.85791472283380
H          -2.91097521677072   -5.42167688928163    5.69512364980673
H          -2.84172222265152   -5.42691312373723    3.93254314927175
H          -2.06971486052322  -11.91364467704886   -0.75383797666403
H          -3.06508571152890  -10.75938521069974   -1.67066817856337
H          -4.20034810591692  -13.08127853960638   -0.02171579838723
H          -4.02859576574110  -13.05775233827371   -1.78048229219881
H          -5.12778726597784  -11.92826768656739   -0.98652822215410
H          -2.15072616175212  -12.85100749483190    1.31301227681024
H          -2.28987614625875  -11.69013157511524    4.15722163090650
H          -0.48774106486384  -17.72822357114468    2.63757489808288
H           0.59524945805379  -22.44422536450818    4.73136899954422
H           2.50914466588599  -21.01447356345765    9.74781286714664
H           1.09022121082665  -24.30159603003336    6.31874645050556
H           2.05359710806713  -19.17318651749062    8.20587793530587
