127
 SCF done       -252.129697788589          0.000629209350
C          -7.64044953236772   -2.65845551860561    1.96266926483443
C          -7.73121749056198   -3.43352289249600    3.08433465473513
F          -7.65165710418693   -2.87226746257968    4.29631910564373
C          -7.90360299873098   -4.82904208754203    2.98288816040055
F          -7.98028885808335   -5.56078454848960    4.09945914972976
C          -7.97979808091524   -5.43142768616656    1.75886639113322
C          -7.89417556590533   -4.65885870785636    0.58502486164597
C          -7.72476364922872   -3.24707526958862    0.68556301093856
C          -7.67007370638440   -2.44918717849828   -0.47950102866921
C          -7.81230472750504   -3.04015781896027   -1.70767021918510
C          -7.98800832734385   -4.44940909726790   -1.79857002030162
C          -8.00815551380924   -5.24968138340964   -0.69181845840739
C          -8.25320483874513   -4.81582687579240   -3.19744854822420
O          -8.25918629825051   -5.93209512772288   -3.67676971858081
C          -8.41225423670781   -3.51992591807157   -3.91605353207845
C          -7.92991618953044   -2.46460871383247   -3.04493355261305
C          -7.71335160585513   -1.15581497320344   -3.37797222900166
C          -7.92039419275459   -0.60678892944761   -4.66219471483442
N          -8.10284920776322   -0.08901829212342   -5.66947705155366
C          -7.24436996278324   -0.18445613036391   -2.46745011929119
N          -6.85781948114115    0.64205633617863   -1.77181913776263
C          -8.97985313715835   -3.41108707610848   -5.15477783593915
C          -9.85582324407463   -4.40620254730398   -5.64776235429109
C          -9.97847131382895   -4.94128221855425   -6.92555216700001
N          -9.24846225455186   -4.54582596146929   -8.06123942749112
O          -9.49520453747592   -5.11079961270039   -9.11133607083887
O          -8.42337724118292   -3.65876991461731   -7.92726223322139
C         -10.88453155601721   -6.04052247446746   -6.88535861465217
C         -11.30397209139477   -6.21670431767737   -5.59135997436615
C         -10.73681522483129   -5.19674178790842   -4.78293686922355
C         -10.97340551129256   -4.88752826254044   -3.44327324237888
C         -11.06604397287675   -3.59118942442558   -2.87685549934580
C         -11.22888434653123   -3.71184444334148   -1.52707422575646
C         -11.20448339930636   -5.09721812962580   -1.16552609112061
N         -11.19224573541656   -5.47467331473122    0.17244381904482
O         -11.01031228460910   -4.59342763691106    1.00321614796313
O         -11.32768344231667   -6.65664644049662    0.47665357801667
C         -11.07491855761487   -5.86519161698420   -2.33470482543140
C         -10.77868919266701   -7.20679235724071   -2.60512290885371
C         -10.71362157664862   -8.26310157608438   -1.73745643190952
N         -10.27347441742501   -9.47681482194984   -2.12060163086539
C          -9.69267287521042   -9.74605757652180   -3.41683151533021
C          -9.03085092669501  -11.16263633021676   -3.32926569276986
N          -9.54800649171002  -12.05777341477913   -4.34628166556290
C          -9.45281374718438  -11.47925259461649   -5.67735542264855
C         -10.15165744734761  -10.07756239925456   -5.74879627253608
C         -11.24787792090135  -10.12366443767201   -6.80753461596007
S         -10.69108836325994  -11.32972607132408   -8.04562258412748
C         -10.08776671911522  -12.40442260673116   -6.71106746988857
N         -10.69886017512873   -9.69155045495015   -4.45840023272782
N          -9.28935575801797  -11.66950670928020   -2.00481386396811
S         -10.63454243818085  -10.90139245348568   -1.27529117250077
C          -8.87917680062668  -12.91147194977039   -1.61733270506837
C          -9.39403522560948  -13.54266776595448   -0.54399397892064
C          -8.97652168099339  -14.80478299040178   -0.05642416222322
S          -7.73949329016361  -15.74252500304831   -0.83981842543819
C          -9.47790107845072  -15.46307206223081    1.06165869449161
C         -10.55236428005302  -14.92843538669532    1.92042598898111
O         -11.12805010373250  -13.87018896629138    1.71740533022753
C         -10.86830746787549  -15.81419633488515    3.02604438391779
C         -11.78357916612881  -15.64548084219535    4.04308905965221
N         -11.73141612991493  -16.72589618643747    4.85649587038288
C         -12.58503701260933  -16.94604202741343    5.99716257631227
C         -13.88829956202148  -17.62584040561428    5.58245256026366
C         -10.81238179769385  -17.60160790381986    4.38845946300017
C         -10.24210962795944  -17.07516881258051    3.24889233852312
C          -9.19429322188366  -17.62026683087915    2.40597160418958
O          -8.64772498894779  -18.69153125284069    2.59540786169850
C          -8.86249611514725  -16.72201083591199    1.27762550769108
C          -7.88928852827684  -17.02562544311713    0.33774986237915
C          -7.16177163479227  -18.23783921782865    0.23037589209390
C          -5.95203280062421  -18.45453537326369   -0.34819827536598
C          -5.57066555334743  -19.83090961889943   -0.77715776193829
O          -6.12195310341448  -20.86364997535969   -0.48414121572866
C          -4.42603484594911  -19.64183574758654   -1.69376960857728
C          -3.77320016726586  -20.57280021247139   -2.44901824913784
C          -2.70933484719025  -20.15883087167917   -3.28149475714075
C          -2.34534420485545  -18.78109029300983   -3.31866936440775
C          -1.28675414780793  -18.37471194205339   -4.15596488057805
C          -0.61977750116099  -19.29229716549663   -4.91792366160444
C          -0.97999547053507  -20.65464926878649   -4.87957723547720
C          -2.00235561589469  -21.08016932376506   -4.07859490570897
F          -0.31012296176653  -21.53123257554230   -5.63891308432851
F           0.38570612679245  -18.90390236485853   -5.71236685777393
C          -3.03577891203377  -17.84035540824052   -2.52099752014801
C          -4.05797792564638  -18.26601397232677   -1.71521639726432
C          -4.90491210209805  -17.54623836848371   -0.76856602935438
C          -4.60771911400520  -16.33832535862989   -0.19526744514405
C          -5.29441294104804  -15.81449096245304    0.92072461344262
N          -5.79503809112476  -15.37269812700595    1.85421091842175
C          -3.53775720499681  -15.51803268650146   -0.60578624594553
N          -2.69925857493998  -14.80281425933436   -0.92659126693192
H          -7.51406493261316   -1.59150739724260    2.05979881588915
H          -8.12426756707551   -6.49877998959522    1.69828720611378
H          -7.54723903324781   -1.38362247086369   -0.36978149892117
H          -8.14959323309965   -6.31633500448830   -0.78678848345679
H          -8.79794707740841   -2.54683213185011   -5.78275045219599
H         -11.16276967897065   -6.61248833839192   -7.75044843477662
H         -12.04188163829348   -6.92241814144602   -5.25923658813732
H         -11.08360589865270   -2.67878675279819   -3.44213485556502
H         -11.35698386821501   -2.92054593895074   -0.81256932298157
H         -10.55258959397209   -7.40978167206276   -3.64018311603357
H         -11.01167669306398   -8.17964103061120   -0.70103988439474
H          -8.94366939573354   -8.97331583428967   -3.63444615613241
H          -7.94409883938749  -11.09378082608293   -3.47692153922735
H         -10.51018883934704  -12.31562796135965   -4.13575892965169
H          -8.38593809492427  -11.36328659828785   -5.89390670348871
H          -9.41436194851252   -9.31423720705162   -6.01800148602621
H         -11.40260063215495   -9.16464830059265   -7.29140111178191
H         -12.19332793961479  -10.47115887495099   -6.38547458999826
H          -9.38304805685349  -13.11954440357155   -7.12420441531394
H         -10.93811734375250  -12.94368053635073   -6.28863226741428
H         -11.49115347812370  -10.28325812352213   -4.21444476131956
H          -8.10421657473845  -13.34316865494846   -2.23461670518030
H         -10.19130806015770  -13.07670217101729    0.02427034074276
H         -12.44445287474971  -14.82216051470996    4.22882487018941
H         -12.79853670365645  -15.98067664789746    6.46292643463010
H         -12.04925305968426  -17.57066697364456    6.71599447498856
H         -14.42569022283506  -17.01005757348128    4.86528226947711
H         -14.51973903076043  -17.77882066777943    6.45272548803392
H         -13.68406948004238  -18.59101166958187    5.12534753815712
H         -10.60578718290804  -18.53122811643794    4.88055301228977
H          -7.66685817163328  -19.11862870076051    0.61899279685932
H          -4.06349980927516  -21.61165640484013   -2.41075306756037
H          -0.99525346391240  -17.33673245448372   -4.19425676700426
H          -2.26563140900129  -22.12612554192934   -4.06008260509616
H          -2.74510502999473  -16.80308502181565   -2.57251690240609
