103
 SCF done       -225.120850260578          0.000918434990
C           0.94454425100160    1.55906444682288    3.66777146995724
C           2.09358833961810    1.50310896982441    4.40571924739842
F           2.70489401315732    2.63043378591364    4.78596248000483
C           2.64860114557879    0.26074083321192    4.77664745243879
F           3.77370644124131    0.23644599919887    5.50071509837937
C           2.04694403811691   -0.90834486009062    4.40316165943708
C           0.86186836299139   -0.88380483438133    3.64216238119332
C           0.29815642419091    0.37156880208590    3.26910552602979
C          -0.89413474447067    0.42072546318330    2.51223321733328
C          -1.50671089333383   -0.74902176544878    2.14423120823404
C          -0.93221202519440   -1.99817467267035    2.51219108574331
C           0.22195754111548   -2.07619507825039    3.23860377309056
C          -1.75133807671759   -3.10137493096601    1.97823101136629
O          -1.48774506454523   -4.28157852316524    2.02349723854742
C          -2.88622500262860   -2.44237151295770    1.26557192070372
C          -2.73359947532176   -1.00252329805123    1.39911392533839
C          -3.63844409703895   -0.05912593414852    0.99412271173324
C          -3.46423193410528    1.33010606725828    1.17753139621986
N          -3.37266360117146    2.46729744727894    1.29858049753767
C          -4.88087926501114   -0.34272388486803    0.38485829874780
N          -5.91918816527227   -0.49963925401005   -0.07785213061110
C          -3.78749602217406   -3.07775562932729    0.47236036790995
C          -4.06825947186436   -4.47820050930315    0.47860520136519
C          -4.46147975829624   -5.12837392744121   -0.71442642221782
C          -4.71503829810486   -6.54142178676950   -0.76728775362985
N          -5.22270073583490   -7.08441307745019   -1.88455567951483
C          -5.35578321137579   -6.34655917920348   -2.95463685890645
C          -4.93873384657803   -4.97038675278927   -2.94611027226621
N          -4.54978448179429   -4.39801252129280   -1.83888972666428
C          -4.99262718510895   -4.20706260624379   -4.14137196067542
N          -5.04515773233274   -3.61820460498559   -5.12130417081202
C          -5.95422330893937   -6.89991608684670   -4.11595950857450
N          -6.44633519462929   -7.30460529591553   -5.06646944933661
C          -4.50317140559891   -7.36738897444524    0.36124650876631
C          -4.24588364401923   -6.70181028506936    1.57173322401199
C          -4.04965368834019   -5.27445010413779    1.63771287689846
N          -3.88609537139012   -4.86520674919632    2.89849814486357
S          -3.91349239424486   -6.12802743378913    3.87088975734274
N          -4.16891737435504   -7.27125776211515    2.77724341012340
C          -4.62508173067032   -8.78654264897991    0.31922376407874
S          -5.08572559975594   -9.65629113737440    1.74248916064611
C          -5.21962224982282  -11.15515415566659    0.86753494004620
C          -4.87092635863331  -10.98056296350006   -0.47415309142734
C          -4.51898033636365   -9.64538020122627   -0.76704492413730
N          -3.96168913037057   -9.28910455913586   -2.04089802219822
O          -3.04269174936694   -8.49437336293987   -2.03566690118296
O          -4.40421657451848   -9.84839316236161   -3.01388307102680
C          -4.79367073475930  -12.02362320878894   -1.41773478221600
N          -4.71055006938279  -12.89559147034909   -2.15710552780443
C          -5.64824953224565  -12.30572261882187    1.57374440099922
C          -6.03473729075877  -13.48905434065851    1.02893794042108
C          -6.50160946703933  -14.58229382476974    1.80625060124244
C          -6.47497906088517  -14.74214720125446    3.17365425144871
C          -7.09677867785590  -15.97859020150915    3.51462341837972
C          -7.52584349208974  -16.58773544553494    2.23647823429802
C          -7.15399427044258  -15.75619456849918    1.23208842306785
C          -8.23527005633373  -17.78550917571848    2.09125707742284
N          -8.83055671069742  -18.76045903040981    1.96852164093772
C          -7.30812556747726  -16.48825207424341    4.77030660709135
C          -8.00563937974436  -17.69128740989385    5.09868333903120
C          -8.16179678899752  -17.76601213024881    6.46101235644117
C          -7.48339755742888  -16.61998126773416    7.05297496272930
C          -6.98031810531242  -15.84670445403781    6.05677274760212
C          -6.28396520118916  -14.64536915368901    6.23107948236454
N          -5.71071544990401  -13.66325973524125    6.39291619431612
C          -8.83903021585423  -18.76603911518281    7.20988459979450
C          -9.82552946084692  -19.60234666209054    6.79657421833136
C         -10.13456078864717  -20.81324316098583    7.62048639422253
O          -9.76464416312090  -21.02094599150949    8.75086166795134
C         -10.92215111118050  -21.69127289807304    6.73710656847174
C         -11.34908293765173  -22.97024907901348    6.95563972644134
C         -12.06978935914898  -23.63550385578357    5.93928402447384
C         -12.31914698328456  -22.96672925641645    4.70473670845500
C         -13.02712836770707  -23.64171685273372    3.68993685276912
C         -13.47319301467631  -24.91737236844877    3.89357749275608
C         -13.22993064389724  -25.57630165318942    5.11651668343371
C         -12.54224536882871  -24.95054802739003    6.11821736845774
F         -13.67936784826162  -26.82543594259141    5.28792575236300
F         -14.14843771209686  -25.55640347741145    2.93150744613003
C         -11.86902304225429  -21.64154868002469    4.50845161536654
C         -11.19454327882646  -21.00740380542814    5.51756570769949
C         -10.65963150991709  -19.65127041537966    5.60904843806328
C         -11.09015256220176  -18.59709023960309    4.84999457389261
C         -10.73050276894918  -17.25153127728525    5.06054369367394
N         -10.49692524674438  -16.13535750476931    5.19471575969461
C         -12.03075056463628  -18.71913204401066    3.80266875806047
N         -12.80164370446794  -18.75657507489858    2.95454980442205
H           0.53260388994924    2.51773297627015    3.39364353716982
H           2.48535610919383   -1.85016738558558    4.69380397798059
H          -1.29149270376798    1.38467883799440    2.23841455712509
H           0.63873387338343   -3.03591586338235    3.50391449959310
H          -4.33837408551634   -2.51325162193238   -0.26991563791191
H          -5.71237625225015  -12.17798104138658    2.64617522974715
H          -6.03554505745413  -13.61854955455342   -0.04388266645191
H          -6.04922290251518  -14.06929083661583    3.89054967074706
H          -7.32028128380284  -15.90396958702390    0.18089498958203
H          -8.32631197314214  -18.42126591696989    4.38264359718888
H          -7.43069562231485  -16.42243355516902    8.10764139794557
H          -8.50134792560398  -18.91956790894561    8.23102827190830
H         -11.13934405168251  -23.46722698094673    7.89053190990703
H         -13.22463206761972  -23.15022606018054    2.75017254259158
H         -12.36373895912063  -25.46891572140558    7.04726881929907
H         -12.05653426515285  -21.16350287384559    3.56045106751538
