115
 SCF done       -230.885012622093          0.000959722137
C          -6.20116568360514   -1.16901525525686   -2.26282009311401
C          -5.89569621051674   -1.24388918614998   -3.59285932344074
F          -5.39636573651206   -0.17807552465031   -4.23066510571390
C          -6.10179219323440   -2.44000633303443   -4.30978894920564
F          -5.79466043014653   -2.48532638579771   -5.61311470528545
C          -6.61047677652954   -3.54460837238652   -3.68642483196583
C          -6.93633414730742   -3.49898117993776   -2.31680901082468
C          -6.72750034065046   -2.29036352149629   -1.59042670640445
C          -7.04690975597216   -2.22162007101604   -0.21526126795145
C          -7.56082546838967   -3.32637589267856    0.41080506049998
C          -7.77455594355413   -4.52789310266663   -0.32306875801240
C          -7.47169928123240   -4.62381183085096   -1.65129547720276
C          -8.36715415280285   -5.54938443709614    0.56019361460162
O          -8.69448648286122   -6.67621180485224    0.24975249185210
C          -8.55465519364212   -4.87497470893627    1.86827714078612
C          -7.96969177135586   -3.54918895482497    1.79172926656743
C          -7.74979286241985   -2.71394298767015    2.85191312780999
C          -8.01997956641256   -3.07090434941895    4.19119538660265
N          -8.16972238439019   -3.33799960462738    5.29704348040796
C          -7.16464204935458   -1.43535491226419    2.74040246249326
N          -6.69762667772044   -0.38819478043626    2.69551384794197
C          -9.36168110924380   -5.35191598410320    2.85208142801839
C          -9.86466307917964   -6.68491562057165    2.89957206125121
C         -11.19505346342050   -7.05825972109040    3.04386764174622
N         -12.27647510588682   -6.17024816026965    3.16201528758096
O         -13.37701619650699   -6.64140130787693    3.38166276092699
O         -12.04648087030458   -4.97563560628626    3.04017870471318
C         -11.30673793371732   -8.48425729193184    2.96878857589645
C         -10.06476687037813   -8.99284028622106    2.75383468901470
C          -9.11289762531443   -7.91127416128500    2.71405359667853
C          -7.73035403860721   -8.02763997792250    2.73077460513500
C          -6.80631854388488   -7.18350596899543    3.38752733521092
C          -5.58327504859748   -7.81104352325534    3.42939892705339
C          -5.66588195056815   -9.04903378207510    2.74076704795175
N          -4.58848648117005   -9.92038160380878    2.57222231622471
O          -4.78293141567098  -10.98901996518127    2.00072303680455
O          -3.50489038047977   -9.58053733744879    3.01930295521702
C          -6.97106459950150   -9.19200282042420    2.22907946583032
C          -7.41935109768740  -10.12109580805584    1.30068085099749
C          -8.52731371931754   -9.92924251055986    0.48885093849053
C          -9.12169157188850  -10.86832142546011   -0.34295243471517
S         -10.23089365731679  -10.28998676125472   -1.55918441552061
C         -10.58880164799202  -11.87765265325110   -2.12932528379738
C          -9.83939698891665  -12.84932569386861   -1.42609346271971
C          -9.03059275029053  -12.28788545088093   -0.39594254139746
C          -8.28904219462323  -13.13330131812223    0.43667715818772
C          -8.26602760657588  -14.49305162637351    0.20701363266989
C          -7.46813239754230  -15.40698359377910    1.07695380139070
C          -8.99369259011809  -15.02439981551962   -0.87409607540286
C          -9.77043074233288  -14.23088063023409   -1.67543927001953
C         -11.55029477430531  -12.02021576832251   -3.15879138872133
C         -12.34158355293941  -13.11192002217907   -3.32729156654298
C         -13.31339749914924  -13.35989005103373   -4.33290696671797
S         -14.34742622576475  -14.73101796620509   -4.03649790322075
C         -15.11464378075237  -14.57807949487863   -5.58451679838139
C         -14.56831534113671  -13.51998609458022   -6.29222587170942
C         -13.59733938473980  -12.79805291742188   -5.57536980958022
C         -12.95216078105156  -11.56543979195644   -6.14429726620125
F         -13.03403530601222  -10.52048107652110   -5.23832065543534
C         -13.62827685307481  -11.09328323728801   -7.43000321271300
C         -13.94987083040511  -12.26210000351852   -8.34515129390375
C         -15.00329329014126  -13.13616650630802   -7.67558150440600
F         -15.20378664456555  -14.26727460652021   -8.44450461347776
C         -16.14048245215640  -15.48627769060771   -5.98126437693117
C         -17.09340162453328  -16.02544166662034   -5.18155248749517
C         -17.82065960864558  -17.26444025650240   -5.58919946804154
O         -17.83318554861486  -17.76852260695648   -6.68510444615456
C         -18.45683605459446  -17.75726310713048   -4.34968623789316
C         -19.15539320774703  -18.91294063971593   -4.14655155800971
C         -19.67580982739080  -19.18493084391772   -2.86131231859682
C         -19.45189128212743  -18.25573563753607   -1.80323852261948
C         -19.97116392014943  -18.53528527080606   -0.52301126249259
C         -20.68448235722617  -19.68029895389831   -0.30432621497240
C         -20.90794862749640  -20.59743498251588   -1.35188650886098
C         -20.41415870134770  -20.35658890427646   -2.60351475562273
F         -21.60989588105276  -21.71078718275848   -1.10836812940959
F         -21.17944032863331  -19.94304677970474    0.91074743894408
C         -18.72798517574302  -17.06602028979284   -2.04274975389461
C         -18.24603200448971  -16.81660654040794   -3.30015699973514
C         -17.53430541371995  -15.66718483267367   -3.84623661076421
C         -17.53240007482242  -14.40501777040956   -3.31395357572128
C         -17.10937204286461  -13.27335238016728   -4.04047809405601
N         -16.81903751685293  -12.34177976072430   -4.64492473341437
C         -18.03956901238862  -14.09073519081654   -2.03639985420782
N         -18.41575615000739  -13.79495623569298   -0.99382889968012
H          -6.03649250888286   -0.24636254405257   -1.72858864412165
H          -6.76286914198845   -4.45199239526775   -4.24957813962597
H          -6.88641276445397   -1.29296240799735    0.30862886195747
H          -7.64291766314245   -5.54439512128213   -2.18846817543216
H          -9.72924712267081   -4.67395441655539    3.61434498915645
H         -12.23282348825765   -9.01680672945287    3.06810485156517
H          -9.79902393330218  -10.03189687427438    2.72721461839894
H          -7.05707043478607   -6.26502992256732    3.88361362414507
H          -4.69079349982918   -7.45304283373243    3.90838238871822
H          -6.77823901715506  -10.97691265561406    1.13697952989093
H          -8.92562613143997   -8.92334489801928    0.42679017372957
H          -7.73139416536289  -12.73065018955764    1.26521363886164
H          -8.12942145341856  -16.09005578696823    1.60951098857757
H          -6.88438819324528  -14.84837621958827    1.80279515921947
H          -6.79204759888707  -16.00924860167865    0.47223984637826
H          -8.93548476125292  -16.08530064784036   -1.06698276180331
H         -10.30266086273660  -14.65797998966371   -2.50975689517174
H         -11.70592172915141  -11.13844825806294   -3.75785695803043
H         -12.28793152881569  -13.89563142382448   -2.58229964444643
H         -11.87492359788586  -11.74082102251470   -6.29207331747556
H         -12.98063662274545  -10.37390085425882   -7.93155346815783
H         -14.55125280517455  -10.58119463885519   -7.14801952971917
H         -13.05754858065350  -12.86456128499636   -8.53092767099841
H         -14.32826403818205  -11.90815973624023   -9.30398054619159
H         -15.97598348437629  -12.62499337290816   -7.63317512077734
H         -16.12299297247772  -15.83110082298653   -7.00988897871863
H         -19.31406039500847  -19.60787405632383   -4.95702115583710
H         -19.81338151870827  -17.84166225163935    0.28808944198028
H         -20.59445976386600  -21.06835785083713   -3.39380516338099
H         -18.56610435519119  -16.38161352753095   -1.22511070461530
