107
 SCF done       -224.937852296266          0.000264424948
C         -13.28563265257685   -2.01159948114532    9.07966587890544
C         -14.36531448817686   -2.48865987177289    9.76835357215978
F         -15.23578431011893   -1.63944206909409   10.32780995119069
C         -14.57750519181190   -3.87642033714735    9.89864454245500
F         -15.64482742828583   -4.31483732741517   10.57809916886099
C         -13.70626089288930   -4.76802973930657    9.33836546934450
C         -12.58461981655895   -4.30758540229065    8.62150385605267
C         -12.36854277995963   -2.90472399696828    8.48956519755646
C         -11.25029452822652   -2.41945942538784    7.77442049616511
C         -10.37523765610727   -3.30988090344559    7.20912456087876
C         -10.60195852940618   -4.70851908995371    7.34048982048055
C         -11.67298343008539   -5.20672890494576    8.02548189335139
C          -9.54871593629693   -5.45174677911032    6.62205051793466
O          -9.47165979877016   -6.65294708462450    6.49288178449753
C          -8.67455186307761   -4.41136984373810    6.01428127173314
C          -9.15839684634979   -3.10711495629034    6.43069394240509
C          -8.53594046589525   -1.90726332748715    6.21231220914862
C          -7.30065442718606   -1.75267742959671    5.54628114395283
N          -6.28906126645071   -1.55815591922763    5.04019742401340
C          -9.03252282567915   -0.66727508229634    6.66760737297561
N          -9.39215519341402    0.36713076269964    7.01036936603743
C          -7.72683042598711   -4.65921458927527    5.06755198448080
C          -7.17161850056639   -5.92460203806423    4.73437092338042
C          -6.71469927320495   -6.27684981870084    3.48258312284967
C          -6.24462407625244   -7.62440833343440    3.51803821054039
C          -6.37967488118375   -8.06249040656631    4.91534398953138
C          -6.93963363406824   -7.04949584736919    5.62937807986166
C          -5.98619448543116   -9.29755620532212    5.44242337745951
N          -5.65998837388194  -10.30379972401432    5.89111288416788
C          -5.78329679195588   -8.37866553680719    2.46278472954357
C          -5.31938255645147   -9.71802229626660    2.49652483706522
C          -4.98076979647160  -10.12643436080199    1.21948070811785
C          -5.23077411421167   -9.00482664227449    0.31950553226480
C          -5.70003566663236   -7.96115797964628    1.04767817146306
C          -6.05101257595886   -6.71353901334905    0.51835859184780
N          -6.33089164336985   -5.69935617876823    0.05784747984464
C          -4.49220873041702  -11.41783994344866    0.90771987436940
S          -4.18363481796344  -12.47766533145435    2.28380663739014
C          -3.56709789859576  -13.72758198190253    1.26439402581827
N          -3.12790292966822  -14.86561104497081    1.77670168043907
C          -3.09827024131562  -15.12753860627727    3.18819898521978
C          -3.66947748505936  -13.38649828605315   -0.10473815656092
C          -4.15595532540488  -12.05854751638013   -0.27247034559728
C          -4.12401727877883  -11.40046785214618   -1.60561195062775
O          -4.93574389098029  -10.63863251096162   -2.05867439347751
O          -2.98511350487183  -11.72938269778226   -2.24019717010259
C          -2.79599903710509  -11.18433101439390   -3.53854683430111
C          -3.48744283388811  -14.27722186637213   -1.22010346928013
C          -2.48215589276831  -15.26397613860057   -1.37764755990846
C          -2.27403514800114  -15.93395324642341   -2.64227363729511
N          -1.20558550122118  -16.73024831413213   -2.80796021327716
C          -0.39165539842894  -16.94770163131707   -1.80971937741232
C          -0.68621761238062  -16.42360655511388   -0.51122327284566
N          -1.69738754476128  -15.59885068486621   -0.34336510943796
C           0.07187762866473  -16.79662402461175    0.62409200429362
N           0.68391050337411  -17.09688944639870    1.54497065833736
C           0.77161572537797  -17.73571432480648   -2.00795442015063
N           1.72415444650185  -18.35995810577610   -2.12281822320322
C          -3.18183289932055  -15.82893538714140   -3.71633543597022
C          -4.25632157992778  -14.93957132655180   -3.52040886186002
C          -4.37972068777092  -14.16780212714026   -2.31030687589554
N          -5.47165928871992  -13.40040879858048   -2.33076660189630
S          -6.23923195814415  -13.59256142747964   -3.71698403477542
N          -5.24227454286088  -14.66741980041205   -4.37957820114233
C          -2.96590412209162  -16.57581505135472   -4.91237997959641
C          -3.88881633196216  -17.04101272586675   -5.79262129938071
C          -3.46079514591574  -17.44357600878222   -7.16470213314970
O          -2.32910748681232  -17.61022274578678   -7.55027726024393
C          -4.71141082879306  -17.52789938047417   -7.94656464297849
C          -4.87190122341629  -17.74426287512819   -9.28474990087968
C          -6.17683285506895  -17.75691565922143   -9.82693163491751
C          -7.29323806826089  -17.53736344249574   -8.96809480493351
C          -8.59138064390736  -17.54226082615031   -9.51708430331198
C          -8.77309933039564  -17.75831062948501  -10.85427244939831
C          -7.66848349418582  -17.97780398544063  -11.70220141374373
C          -6.39701299847059  -17.97761899498516  -11.20042283314802
F          -7.87647601199614  -18.18573787321817  -13.00844029762830
F         -10.00700255344155  -17.76292737905424  -11.37348942926807
C          -7.09646441692102  -17.32316403302552   -7.58479723964694
C          -5.82358850904122  -17.32520670370839   -7.07948911228867
C          -5.32780883353480  -17.16581691838376   -5.71648908419008
C          -6.07253504296510  -17.33115539864668   -4.57800189934410
C          -5.52799285803653  -17.40848309837489   -3.28201979704651
N          -5.13399187004733  -17.49119952409156   -2.20596192811471
C          -7.47370818162705  -17.48674045323991   -4.57023616450888
N          -8.61517255095083  -17.58505641524480   -4.50108827023089
H         -13.13753086007731   -0.94671246140933    8.99038587841854
H         -13.88297988770772   -5.82670503249271    9.44647331364282
H         -11.11811006162433   -1.35329437188518    7.68519891179725
H         -11.82226980318854   -6.27248429027684    8.10968017413798
H          -7.37577978381494   -3.83323204228396    4.45973137376860
H          -6.75028524816355   -5.66108748294104    2.60485728778522
H          -7.13602407703612   -7.05299005822341    6.68345851242759
H          -5.25180127183144  -10.31679946861101    3.38417365868687
H          -5.08893058974010   -9.01863745914200   -0.74213308807969
H          -2.54874662866331  -15.42770931057305    1.13564678959137
H          -2.31884890630153  -14.54132646263345    3.68417324309424
H          -2.90033224658152  -16.18443638853538    3.34702284093231
H          -4.05810814882648  -14.86562324040151    3.63694246387398
H          -1.72350992248994  -11.17392906598872   -3.71691898226600
H          -3.20672155608058  -10.17439485247847   -3.58987225953762
H          -3.29337896167948  -11.81035135143925   -4.28365858757577
H          -1.92879361860971  -16.77473869943356   -5.16257809741321
H          -4.01538022933143  -17.90385016393320   -9.92187120274867
H          -9.44811344953430  -17.37982086761255   -8.88188977844931
H          -5.56245471110491  -18.14702965521492  -11.86260420997671
H          -7.95784583213680  -17.15239198244357   -6.95902414802323
