111
 SCF done       -217.636537718732          0.000826274739
C          -0.68312930557356    2.63666085029114   -3.34823125472532
C           0.55144740802121    2.76693615193838   -3.92033313885816
F           0.91677616186401    3.92867909597684   -4.47550993605804
C           1.45369435679605    1.68396425960967   -3.93375233425774
F           2.65608481571570    1.83968940583984   -4.50175467913513
C           1.10878613061767    0.48540284916927   -3.37412765202690
C          -0.15588665030869    0.32016995533918   -2.77706617804467
C          -1.06912064557411    1.41421285912876   -2.76292476437310
C          -2.34460436365475    1.27229228072722   -2.16936744764421
C          -2.69636344199318    0.07318712438996   -1.60803458337938
C          -1.77839276207987   -1.01445150446975   -1.62995426778832
C          -0.53971230449604   -0.90781551875688   -2.19366139428131
C          -2.39506293706242   -2.18047172511828   -0.97557218371921
O          -1.87707867591899   -3.26978245728948   -0.80388818797162
C          -3.75153010268999   -1.76596194756768   -0.59593225453367
C          -3.91746285299830   -0.36360794108281   -0.93611439261149
C          -4.99223744507891    0.43742912485072   -0.64846276272469
C          -5.07592036452936    1.80159139375493   -1.00103713015909
N          -5.20640436661447    2.91166510893822   -1.26101562987875
C          -6.14850231698719    0.03657275949607    0.05296172151168
N          -7.11082271461161   -0.21729017961664    0.62719059128815
C          -4.73647124768482   -2.57289260507323   -0.08745582444745
C          -4.71129792407680   -3.92566737130417    0.28665557679399
S          -3.29476089804001   -4.93501987074719    0.27715461417812
C          -4.21510829063591   -6.28454826233749    0.84055316528240
C          -5.57055773766754   -5.97797710071896    0.99683253544444
C          -5.84929783769666   -4.63945385130812    0.70748939844647
C          -7.20487552675402   -3.99549902275212    0.75808044434848
C          -8.24359252891830   -4.82986893335387    1.47809487643066
S          -8.19605407990844   -6.46649355040606    0.70139121555367
O          -9.22277414745763   -7.31686346853448    1.23041888304757
O          -8.12780398214807   -6.30557489280526   -0.72552633018064
C          -6.58232798101012   -7.01376483499727    1.31758361577116
C          -3.59873397939312   -7.53560324436352    1.14400883179862
N          -2.54264690462909   -8.07061169057388    0.44896618639753
C          -1.97577943091755   -7.59821437297739   -0.79325937820460
C          -2.96511029694602   -7.71385457345408   -1.94845501265942
C          -2.13067942370311   -9.30892110299027    0.99077200475703
O          -1.23379337457220   -9.98092142956554    0.52962471360570
C          -2.99621077468609   -9.49565730345750    2.12872165717940
C          -3.89245455579709   -8.39977499439138    2.19808661263640
C          -4.68672799175483   -8.58051854602269    3.39346037888152
O          -5.54928252865000   -7.89441751842799    3.91060346031416
N          -4.26016500730542   -9.80822794930148    3.93147482580971
C          -4.83177257254460  -10.28547863897024    5.16785915957390
C          -3.89657142621953  -10.06287069182476    6.35364557730155
C          -3.23673723905574  -10.35930598941287    3.19179351636638
C          -2.51562716140367  -11.56854923117404    3.35417060464445
C          -2.66621485170993  -12.58502150387580    4.23905823404645
C          -1.86111580012778  -13.75423270514210    4.20083246712406
S          -0.56818435367753  -13.96209335586137    3.05443146062648
C          -0.20218093466492  -15.54715931091235    3.65539392068697
C          -1.05966913280796  -15.88042655678076    4.71089138708303
C          -1.98064502964101  -14.86731917533404    5.01081445242244
C          -1.02830463018143  -17.08701914716848    5.43108142846331
N          -1.02988435342700  -18.04846820671674    6.05751251926637
C           0.82328362764613  -16.29535680966148    3.03034465605280
C           1.11482849635032  -17.59587321693956    3.29157966035961
C           2.10108548885701  -18.31738251673162    2.58026232024630
C           2.24188526400558  -19.67192427862371    2.55935704741442
C           3.51386702550803  -20.29061214354646    2.09628190299144
O           4.41233607102075  -19.74051754632484    1.50349177075476
C           3.45619810763723  -21.68832127714223    2.57003728034762
C           4.41765100581972  -22.65511701421161    2.50231749888605
C           4.14789614315395  -23.93137648880396    3.04470009199882
C           2.88526031895670  -24.17729272652777    3.65873432733039
C           2.62403929609809  -25.45139111474739    4.20201689925247
C           3.56980321002026  -26.43565645017055    4.13517273410344
C           4.81793810021904  -26.19142565242377    3.52711336297424
C           5.10250193966346  -24.96582735357649    2.99322060963314
F           5.72646889865663  -27.17464489202510    3.47725116836713
F           3.31890972920837  -27.64674669658146    4.64881145512444
C           1.90823618788156  -23.15699468750962    3.71305797303268
C           2.18570219402042  -21.93208068416072    3.16743061323314
C           1.37101055506689  -20.72541403326682    3.03717173992494
C           0.00454434758549  -20.67993066491783    3.12790183519486
C          -0.79094211167322  -19.58834826881868    2.71872731311613
N          -1.49156009777322  -18.75889862235269    2.34647888286874
C          -0.78695805178157  -21.77959776024604    3.52421703704864
N          -1.47118832572871  -22.64462423662995    3.83992456891067
H          -1.36130780384090    3.47565988472859   -3.34611372677830
H           1.81069050907792   -0.33352845732889   -3.39293852462832
H          -3.01239471275669    2.11820803898119   -2.17897536860337
H           0.13732745102790   -1.74841053068625   -2.19491825973382
H          -5.70579481793146   -2.10985901919765    0.02997946689250
H          -7.54760918496759   -3.85713732430155   -0.27306748835385
H          -7.14049972711480   -3.00912982830054    1.22662300349153
H          -9.23956252226106   -4.41049600214676    1.37060177443581
H          -8.01683145688924   -4.98507445055097    2.52876980666135
H          -6.33960502074911   -7.96565418381679    0.84880103496623
H          -6.69030365554661   -7.17366839918812    2.39274114805536
H          -1.11223479254365   -8.24406034857331   -0.97821146452889
H          -1.62616786335997   -6.56902802482927   -0.68276487353981
H          -3.28278546142137   -8.74695932033896   -2.06982260487005
H          -2.48928172379499   -7.38654468502608   -2.86804563562601
H          -3.84503452789614   -7.09802204964331   -1.77614533043349
H          -5.10387797164328  -11.33858053408789    5.06252172767413
H          -5.74775959902965   -9.70536972431912    5.31464015031143
H          -2.94134424080271  -10.56051754756469    6.20196134188794
H          -4.35431949835188  -10.44805542411887    7.26058580708139
H          -3.71366498033772   -8.99913221817806    6.48339513601123
H          -1.74017855146052  -11.67294237003335    2.60239554837328
H          -3.42102345635359  -12.57497438952818    5.01033224334690
H          -2.71607845379038  -14.95474871444233    5.79137263404753
H           1.35591514104824  -15.78824887142751    2.23548174436685
H           0.57247933613747  -18.11592462063154    4.06659769870519
H           2.85177324983446  -17.75404193653076    2.03613945041511
H           5.37061894661197  -22.44958538139183    2.03895535705438
H           1.67276609161509  -25.65589783527587    4.66805391925241
H           6.06234382667121  -24.79479410582379    2.53149737471263
H           0.96563436403640  -23.36753743328831    4.19240083979773
