130
 SCF done       -254.286682638736          0.000439735214
C         -15.78550715599077   -6.48809709317269   -5.32641631752205
C         -16.61132399534356   -7.30539660437840   -4.60664781654789
F         -17.93009144780854   -7.08026646151654   -4.58553252045427
C         -16.08762323348381   -8.39376717187512   -3.87902762755285
F         -16.92022013519535   -9.17871491449065   -3.18414979761292
C         -14.74499249383259   -8.64894763801477   -3.88114244444979
C         -13.86792958206586   -7.82531597432679   -4.61371570153700
C         -14.39615107018854   -6.72428248330193   -5.34946857267769
C         -13.53476834168761   -5.88355258237944   -6.09018949650301
C         -12.18818327379783   -6.13669118914506   -6.09373900546609
C         -11.66873364626784   -7.24261709095509   -5.36250141731881
C         -12.47741713896555   -8.07094558013113   -4.63757271946085
C         -10.20790327433671   -7.31908394791960   -5.54633444611869
O          -9.45864825812620   -8.15195539180237   -5.08574285397090
C          -9.87238944536188   -6.20921994376096   -6.47968522952120
C         -11.07906416476283   -5.44493489598144   -6.73783154960228
C         -11.13403526230587   -4.23360860326409   -7.37083898124120
C          -9.99164846390079   -3.53442769831870   -7.81805497188788
N          -9.09025096512304   -2.90355850699785   -8.14387571644861
C         -12.32523137658143   -3.50874646543530   -7.58612424064359
N         -13.26742063741802   -2.88622338044861   -7.78858773336580
C          -8.68323745889948   -6.09773942874395   -7.12720658817945
C          -7.49716820237888   -6.80423893320532   -6.77604562096707
C          -6.67660900956235   -7.51875913666025   -7.63094243388152
N          -6.87939164089124   -7.67784432891216   -9.01528898055710
O          -6.01063693109901   -8.24021775595400   -9.65264024121841
O          -7.90975050789390   -7.22852157318004   -9.49188812644235
C          -5.62355504725445   -8.14778036339960   -6.88187044193827
C          -5.81251799301786   -7.86677251215322   -5.56863865077876
C          -6.96177077305244   -7.00711170541721   -5.43071579055352
C          -7.38429644091001   -6.34241350447038   -4.29600992782040
C          -7.95727898893034   -5.03655429722826   -4.25830570510673
C          -8.00947852874603   -4.61354997546697   -2.96166462420591
C          -7.55046067873824   -5.66663080815717   -2.11070771766042
N          -7.56149832079689   -5.56935914094714   -0.71102843227008
O          -7.94256413320422   -4.51933989235970   -0.22432826863806
O          -7.18762157122642   -6.52990674973546   -0.05059617490815
C          -7.18898991148684   -6.76735158769710   -2.89614843995110
C          -6.89125909557460   -8.05775459816866   -2.42796986735296
C          -6.99896391172573   -9.19595962776734   -3.18399086638290
C          -6.69692888856458  -10.52365457687666   -2.82988909568154
N          -6.36655898599367  -11.08628754749701   -1.62102596733440
C          -6.24540278957045  -10.44910193668920   -0.32857196678236
C          -4.87055569819582   -9.81384583764126   -0.13691097438794
C          -6.12919970917478  -12.47456513903261   -1.73375203282308
O          -5.83891594602669  -13.18801373272648   -0.80113754470336
C          -6.32590495049447  -12.75822752366004   -3.14256241787779
C          -6.67775760245853  -11.56138837837699   -3.77922723258507
C          -6.82209592592946  -11.83645661056883   -5.19326873064807
O          -7.07944685218905  -11.12868693276247   -6.13905741624389
N          -6.55195043971807  -13.22842528597968   -5.30920727242116
C          -6.70750854858657  -13.87419766272624   -6.59292285905477
C          -7.94626716925151  -14.76267848280654   -6.64307593558591
C          -6.25521587218280  -13.78502898037078   -4.09458585123359
C          -5.92017951976497  -15.12160102086160   -3.74413899495426
C          -5.63012141238493  -16.16579116052646   -4.55280888555988
C          -5.35102421051727  -17.50439806581685   -4.08400566911813
C          -5.90935940856930  -17.97794014231135   -2.88534688774223
C          -5.74700045970841  -19.30284390726408   -2.56068104282572
C          -5.04609026640117  -20.17657544482994   -3.40052834925472
C          -5.06599149547165  -21.52615939520944   -2.78252953303544
O          -4.57724410980002  -22.55303409473882   -3.17823176890985
N          -5.77812966272132  -21.37747029035367   -1.60317795053735
C          -6.23151486109576  -20.08288603425031   -1.39216238088216
O          -6.87357006834410  -19.71799987291541   -0.44278690834488
C          -6.06067217524354  -22.47473280513887   -0.70102188983359
C          -7.39093905605638  -23.13822884365094   -1.03903619200625
C          -4.47187293955810  -19.73174425445578   -4.56781879090670
C          -4.60377472872007  -18.37984108387179   -4.90768554063474
C          -3.90935057788001  -17.87683079816989   -6.07939162894132
C          -3.84572542133635  -18.54026068595397   -7.24847634124034
C          -3.11360882336785  -18.08508312998465   -8.38484661539277
C          -3.31900014058223  -18.48797362943073   -9.66371597860545
C          -2.26277132024918  -18.35033528301766  -10.70838490135072
O          -1.28281251599576  -17.64821228682440  -10.65933706621865
C          -2.65190354906360  -19.31046873657673  -11.76272703181481
C          -1.95815100948573  -19.68482635031932  -12.87738384971885
C          -2.51424330768812  -20.65701086288355  -13.73911957998446
C          -3.78512256048065  -21.22465204857096  -13.42926186978507
C          -4.32790497237801  -22.20110942353486  -14.28847496418060
C          -3.64217693706922  -22.59537579009170  -15.40313646648052
C          -2.38610997118724  -22.03235914099771  -15.70959375487405
C          -1.83360575130672  -21.08247050575140  -14.89646131615573
F          -1.73676079871824  -22.43908542101760  -16.80628658664653
F          -4.15763835951279  -23.52378175314079  -16.21647019669386
C          -4.48670418770672  -20.81052340659021  -12.27426029491665
C          -3.92842302553862  -19.86652172944706  -11.45425544203620
C          -4.41759353899700  -19.24263397634416  -10.23095390415113
C          -5.72040965699817  -19.17996988510442   -9.81070494181977
C          -6.15295451733678  -18.29472940710475   -8.80167434295457
N          -6.53549799414809  -17.53787340084313   -8.02757679457023
C          -6.77271328172758  -19.89500033060671  -10.42040858097252
N          -7.64943725012174  -20.47809328229676  -10.87547283616093
H         -16.20253437811499   -5.65898604613644   -5.87637394576550
H         -14.36031817019269   -9.48571462804233   -3.31944573880070
H         -13.96209573858875   -5.06283489932496   -6.64365274220256
H         -12.06088358504670   -8.90308970981065   -4.09055937044066
H          -8.62281217625029   -5.49103700687675   -8.02451129729334
H          -4.84950694634969   -8.74131987174320   -7.32811503992185
H          -5.16329104746357   -8.13533984888612   -4.75804038726662
H          -8.17764656995991   -4.44301143419951   -5.12496458336099
H          -8.33536852449083   -3.65624608897996   -2.60017856069999
H          -6.63021806899182   -8.10704510666783   -1.38110711671273
H          -7.38128612171724   -9.10983542647305   -4.19284835473173
H          -6.37834449861029  -11.24334240361610    0.41192670950708
H          -7.04502362591531   -9.71751861986835   -0.20091873989073
H          -4.10355699367604  -10.58448795358808   -0.12666817450689
H          -4.84591436604801   -9.28213801346633    0.80947113329107
H          -4.64409744863052   -9.11107245934513   -0.93545447201007
H          -5.80559460612754  -14.43923164221823   -6.83991033865333
H          -6.80865335519741  -13.06106935925259   -7.31811271605387
H          -7.93140086123583  -15.50661615179132   -5.85078734452646
H          -7.98036356317210  -15.28169937314708   -7.59596177666864
H          -8.84368043964249  -14.15837795830874   -6.53724044234626
H          -5.85719406227594  -15.25424927556014   -2.67089796305352
H          -5.60796587889750  -16.04910547458341   -5.62491207858084
H          -6.48798300808588  -17.32856913220765   -2.24782828091794
H          -6.08545177320432  -22.06747652980255    0.31260792145064
H          -5.24134741122297  -23.19141565995340   -0.79537631757454
H          -8.20231701885388  -22.41894696564400   -0.95237720119216
H          -7.57610305647356  -23.95826078059493   -0.35135682968928
H          -7.37043141200631  -23.53034403220638   -2.05355998587299
H          -3.90076337911781  -20.40339779862481   -5.18984983219619
H          -3.44315541086005  -16.90376208843453   -5.99539450341909
H          -4.38942659071205  -19.47093763372460   -7.35447757188283
H          -2.26971089144397  -17.42668376304839   -8.21222096542092
H          -0.99654522608970  -19.24726409686010  -13.09827496739397
H          -5.28900856479401  -22.64006018071214  -14.07063797458539
H          -0.87179944901881  -20.66193486300674  -15.14500247560465
H          -5.44314005274553  -21.25942187735827  -12.05671024967401
