121
 SCF done       -249.704942138022          0.000923543287
C         -18.04195809461326    0.31697379262145   -0.63340061207923
C         -18.42375345012751    1.31455776948269    0.21867507355325
F         -19.63845907792305    1.86795858465482    0.10638536059683
C         -17.54855274203393    1.77359644613258    1.22396715945907
F         -17.95053672992159    2.75308332670096    2.04461879003153
C         -16.30275030583966    1.22871265095762    1.36244071945546
C         -15.87929485107345    0.19922158489724    0.49961795050263
C         -16.76396596162816   -0.26674035664290   -0.51654826865357
C         -16.36364692713318   -1.30261134607442   -1.39000471681802
C         -15.11864083305959   -1.85865501242714   -1.24826129866115
C         -14.24096542070536   -1.38623734877454   -0.23015615375992
C         -14.59760937372911   -0.38239252211978    0.62219736640511
C         -12.97783645272076   -2.14663222574156   -0.28248433790208
O         -11.93376409614973   -1.88827531689432    0.26751001473439
C         -13.22444693725990   -3.23002431406238   -1.27722291071032
C         -14.46293436387631   -2.94115183596108   -1.97375187635727
C         -14.92940359849035   -3.55878074826208   -3.10571404996801
C         -14.25023231162397   -4.57070960173707   -3.81527838873422
N         -13.74583281714635   -5.38989933554694   -4.44510383802989
C         -16.14891105856352   -3.22976778556442   -3.73551070238573
N         -17.12587908678953   -3.00357403717451   -4.29360751084654
C         -12.42983309836355   -4.31224416298090   -1.45571131267177
C         -11.32940934811782   -4.71831282429298   -0.64849408453151
C         -11.17498655439443   -4.76341838689976    0.73204917200205
N         -12.09098510528338   -4.38440171759888    1.73050331837130
O         -13.23125266456386   -4.08944051132076    1.40308168622992
O         -11.70468596036915   -4.41978694202771    2.88368617602509
C          -9.95189280701559   -5.45117373869905    1.04368829592189
C          -9.38698701483637   -5.88764199796078   -0.11517547998539
C         -10.19866794270986   -5.44792651153313   -1.20937153724448
C          -9.94485496224947   -5.55406784978258   -2.56964995690283
C         -10.29916609716128   -4.58193804209416   -3.53848331997306
C          -9.70997957735736   -4.90339936418226   -4.73532049944210
C          -9.01144227706481   -6.13200039457753   -4.59259414256344
N          -8.38747829769696   -6.77763094616298   -5.66467726549880
O          -7.72312904630225   -7.78650041529227   -5.45024708766896
O          -8.54657980785060   -6.29973804804440   -6.77735794938070
C          -9.17756817619246   -6.60054365939769   -3.27038238306057
C          -8.99852650219243   -7.93397617301719   -2.90619882427185
C          -9.50416398246052   -8.59812048031465   -1.80827103045814
C          -9.52235658897137   -9.99914100491847   -1.72752120975732
C          -9.38530207702519  -10.74650048026949   -0.55919534244095
C          -9.17667995139428  -12.09323055740748   -0.88802012003657
O          -8.98591500914847  -12.96381664573060    0.10071641017795
C          -8.54000251121022  -14.28681945635828   -0.11001265244957
C          -9.27818216674243  -12.24339468720034   -2.30940047957868
C          -9.49508479255667  -10.93100390391466   -2.85378839742642
C          -9.73593539278642  -10.57547720992364   -4.17434308912919
C         -10.57333646196898   -9.53011598523172   -4.63380081517640
C         -10.50771235690070   -9.50059465752901   -6.01147876246915
O         -11.11686353445945   -8.73793896491461   -6.88396103780981
C         -11.98890871878566   -7.72461231799177   -6.42048942218502
C          -9.55351927445586  -10.53035469572770   -6.45558202750009
C          -9.12423274546505  -11.19050826862540   -5.37345256400391
C          -9.43666685078894  -13.46504714033004   -3.00352235166448
C         -10.11319585908633  -13.64175351959043   -4.17341769508743
C         -10.23124768275333  -14.89366094552160   -4.81085258221548
S          -9.56020686928623  -16.35664792744015   -4.16811976137390
C         -10.22699088621648  -17.32218129816320   -5.45579733768782
C         -10.90063922054380  -16.50959965162870   -6.36217651209252
C         -10.91855230329485  -15.15045986942615   -6.00436056712706
C         -11.51977226342150  -14.09439869655400   -6.71369905653314
N         -11.97683284166034  -13.18057851763346   -7.23331649527453
C         -11.58020755040479  -17.07029474801824   -7.57201884967139
F         -10.70963589272795  -17.65362885383026   -8.41714470599913
F         -12.47226624308784  -18.02712713522648   -7.24385753633765
F         -12.24518182349145  -16.15653515394172   -8.27742369617336
C         -10.06270530620983  -18.72944643422433   -5.53913121589615
C          -9.65001725755802  -19.56566625912461   -4.54871936153027
C          -9.49109422064910  -19.21634239916320   -3.18558254012553
C          -8.88782879815449  -19.93468705718186   -2.20045791733341
C          -9.16669102285572  -19.60671143846378   -0.77616413638908
O          -9.64427029178833  -18.57655038835103   -0.35615901617701
C          -8.76586530649897  -20.80867288364076   -0.02133987347086
C          -8.94406180413963  -21.09094695422742    1.30262877709975
C          -8.50982903126305  -22.33818843543087    1.80397971594941
C          -7.89169511143349  -23.27110703198628    0.92071620012812
C          -7.46597023532026  -24.51534001080981    1.42731578392455
C          -7.64614968064130  -24.81972006359457    2.74770720827647
C          -8.25907150199151  -23.89681621891959    3.61995299879758
C          -8.68129221601595  -22.68118080649836    3.15924551837047
F          -8.42523824945314  -24.22249610349978    4.90725787075737
F          -7.24201816198420  -26.00149724686741    3.22682833894472
C          -7.71126041341007  -22.94827639793392   -0.44401990354201
C          -8.14151654668284  -21.73435361324140   -0.90849224444928
C          -8.07424890716889  -21.13083933887470   -2.23708434690076
C          -7.24434133947631  -21.51048126446014   -3.25740047715414
C          -7.00878805758818  -20.70747774094267   -4.39450899014733
N          -6.74900682767466  -20.04615441993200   -5.29527302474129
C          -6.44798213673281  -22.67442346248042   -3.22463122680468
N          -5.79801995379769  -23.61960773797130   -3.24342556904919
H         -18.72412580767515   -0.02282806225592   -1.39702739619506
H         -15.64529117667039    1.59015541913287    2.13751934514264
H         -17.05693395495210   -1.63829088188626   -2.14459960111831
H         -13.91548504770523   -0.04527852667490    1.38746894299666
H         -12.63638378763349   -4.97362599311132   -2.28810217207247
H          -9.58895144053668   -5.58395089985247    2.04497624210500
H          -8.43794416994117   -6.37788585008993   -0.22263829400733
H         -10.82711234056158   -3.67294354651451   -3.32435227001476
H          -9.74463053477896   -4.33719116848397   -5.64733761190723
H          -8.46950417016445   -8.53132617421405   -3.63806464664646
H          -9.88419873434017   -8.05289010425358   -0.95613300801397
H          -9.33848655953100  -10.35715106291204    0.43962789792040
H          -8.25765801601274  -14.65415816754179    0.87623208224437
H          -7.66851793617774  -14.31901166222874   -0.76807338821106
H          -9.33924293968814  -14.92211137632860   -0.50241522515150
H         -11.20707964670781   -8.93278381388225   -4.00839380968467
H         -11.46640091694588   -7.01763112015689   -5.77020439931106
H         -12.83302391794511   -8.15045928577105   -5.87397067609901
H         -12.34814223013475   -7.20544470620530   -7.30583158224968
H          -9.27648854870058  -10.66784897989731   -7.48149684541940
H          -8.37393492791919  -11.95535249465546   -5.33066343166953
H          -9.03913999281028  -14.36015003522140   -2.54592563542175
H         -10.63365619421815  -12.82125541505301   -4.64511264661463
H         -10.27138790914121  -19.16495117260183   -6.50649413420845
H          -9.49879910345044  -20.60315073134765   -4.81347206585290
H         -10.00281526350644  -18.32736323050623   -2.83061265702681
H          -9.41558167943805  -20.37469360209657    1.95816817614062
H          -6.99353400365978  -25.23259032178676    0.77447155208420
H          -9.14884100319023  -21.98639838430979    3.83929262666009
H          -7.24780408686305  -23.67484285137453   -1.09244282554093
