121
 SCF done       -237.182595220080          0.000721697453
C          -8.69905945566479  -23.09663203507107    5.60465324969806
C          -9.47220461163982  -24.17607547653405    5.28276444017686
F          -9.37040995954824  -25.31138003884487    5.98578918313732
C         -10.38435157236229  -24.11092150213772    4.20948955157126
F         -11.12827132992309  -25.18563212603729    3.91671994765316
C         -10.50984359590630  -22.96675755892663    3.47285080465161
C          -9.72677506103315  -21.83640537770510    3.77891735191064
C          -8.80423394431366  -21.90113881765168    4.86437144184603
C          -8.01057932593676  -20.77981129681647    5.19161446597689
C          -8.13727935434409  -19.62951964431085    4.45633090552719
C          -9.06260683613131  -19.57220178442259    3.37443768486447
C          -9.83927064202791  -20.64178068929016    3.03401053607350
C          -9.01425285944676  -18.23358696110559    2.75937533950978
O          -9.48858617301251  -17.87540619392150    1.70875668442236
C          -8.15629660109097  -17.42315986814726    3.68224943625562
C          -7.47255859022022  -18.33975094643916    4.58199589549845
C          -6.38904647763206  -18.04924926027149    5.36197243555038
C          -5.74173348753303  -16.79544940039873    5.34509384155928
N          -5.18077903816995  -15.79417754667070    5.33646897458913
C          -5.75829554074563  -18.97561902091590    6.21968613970122
N          -5.20973513634238  -19.69064919925165    6.92939553599117
C          -8.19558234183941  -16.07854188743021    3.73370028518110
C          -9.10070382618045  -15.27023217069449    2.95357389098140
C         -10.47791118822469  -15.38479607414421    2.89683670267613
N         -11.31309626091882  -16.29909953419200    3.55978898014322
O         -12.51472338196367  -16.13294890577819    3.45619257006306
O         -10.81178935646659  -17.20685282187873    4.21295271045394
C         -11.01512996893486  -14.31074534757528    2.09491174480016
C          -9.98368785037199  -13.58841029716256    1.60603592538654
C          -8.74121063007759  -14.14826320984107    2.09065211579247
C          -7.46598875052287  -13.73954397169829    1.75664427676271
C          -6.25249850713051  -13.97736404083179    2.46429062844427
C          -5.30558570060756  -13.12357832136050    1.99144640527253
C          -5.84037607818850  -12.34887746236256    0.90401959432243
N          -5.00945293227555  -11.43989011970121    0.24351867677842
O          -5.49191177276074  -10.58078516111110   -0.49099031344344
O          -3.80910154355820  -11.52753781060561    0.45050284495766
C          -7.15501392270655  -12.76805622824076    0.66668555492671
C          -8.01260168147954  -12.64656788653524   -0.44448910217451
C          -7.94206743146037  -11.69717578744751   -1.42581453401907
C          -8.81236693997976  -11.57070686164211   -2.54761314225701
C          -8.48694115197998  -10.70557245303880   -3.61845930142125
N          -7.28866442711585  -10.13322688120243   -3.93513550120749
C          -5.99655507425674  -10.70727115921784   -3.63242913806284
C          -5.32217529002501  -11.27461522212310   -4.88719152044856
C          -3.88164857325794  -11.66731033108413   -4.59217024063871
C          -7.50350504153843   -9.21957447335252   -4.95759007391932
C          -8.85344793509515   -9.29120008558531   -5.37410832599394
C          -9.48532505673688  -10.26656788270866   -4.52641335952501
C         -10.75945591632580  -10.79723080592720   -4.47935636130899
C         -11.04623242970548  -11.75747751414057   -3.51147394551703
C         -10.10781198500515  -12.12609879719147   -2.57142164119538
C          -9.32470298512362   -8.49735942877206   -6.40726510923276
C          -8.44571163827473   -7.61508055023171   -7.00735973546257
C          -7.13519839091538   -7.50364569590094   -6.56384449065159
C          -6.63467256510504   -8.28788828790617   -5.52988443712916
C          -5.27636156220297   -8.03208762135429   -5.02901872085405
C          -5.02166636296068   -7.60232912642039   -3.76249779285225
S          -3.34961956320305   -7.31929035481427   -3.47602456022074
C          -2.96408089753010   -7.78011818505670   -5.06841613694013
C          -4.07133001264920   -8.13427463821493   -5.79822055295323
C          -4.02453240901187   -8.65171088453181   -7.16531976569040
O          -4.96147953400312   -9.08277932642057   -7.78485177748285
O          -2.74541174479536   -8.59307816839294   -7.64630721172637
C          -2.36394443568247   -9.12502004602133   -8.82738136546855
C          -3.11840958807595   -9.63749962844396   -9.81159803812076
C          -2.57565042146372  -10.16001229951867  -11.02538904861269
C          -1.38630418010750  -10.76329025942761  -11.27271142724178
C          -0.94448008809234  -10.89630530195614  -12.69387551821474
O          -1.62048605209165  -10.70713050875814  -13.67680660526361
C           0.48617774348525  -11.24894950088697  -12.62921476664963
C           1.38449957629777  -11.37622437069666  -13.64960479452631
C           2.72517306946673  -11.70216653569630  -13.34752294119127
C           3.11137016042205  -11.87747436341687  -11.98669411564255
C           4.45219628080563  -12.19573289838865  -11.69002784699514
C           5.36489593110762  -12.33818780583633  -12.69693321604703
C           4.98129004194873  -12.16662564979860  -14.04283577024847
C           3.68971654622568  -11.85483335618705  -14.36272861210505
F           5.89751968986971  -12.31145244439811  -15.00827301882424
F           6.63715549937739  -12.64277457068554  -12.41412733224943
C           2.15838811064522  -11.74144569776637  -10.95219052896961
C           0.85915921762451  -11.44332958423771  -11.26907850644036
C          -0.32755380897892  -11.28852438884059  -10.42915068271823
C          -0.44271862306169  -11.78200517918031   -9.15765337845702
C          -1.63416488844982  -11.83115346846357   -8.40696760122744
N          -2.56041084060836  -11.93760838701309   -7.73758859717894
C           0.62280956506720  -12.37879238043360   -8.44892929019080
N           1.45368572505652  -12.85948743772728   -7.82033599745926
H          -8.00596941790051  -23.16334301236565    6.42871007617396
H         -11.21342173502453  -22.93269668388792    2.65588512223495
H          -7.32864866684424  -20.85207226489759    6.02405076578477
H         -10.53739381949100  -20.57410436160536    2.21386188847643
H          -7.58720217964233  -15.54327290777046    4.45148824807343
H         -12.06647618059087  -14.15059028214770    1.95380178953300
H         -10.06140119127153  -12.69061752269780    1.02510334868929
H          -6.11495679382274  -14.64530915024670    3.28911810817798
H          -4.30021668440843  -13.00953956527025    2.35171051599139
H          -8.75648425514522  -13.42693986052392   -0.52728768769993
H          -7.21275255619801  -10.90976716839714   -1.30666610118409
H          -6.14065458320308  -11.52609702070322   -2.92911533384943
H          -5.35544351792936   -9.96538583686104   -3.15006751376885
H          -5.34468832351168  -10.54939725480161   -5.69839379280730
H          -5.88273641727195  -12.15027837471854   -5.22256666381717
H          -3.31438604657403  -10.80608673058030   -4.24503956587760
H          -3.40823409817469  -12.04940714643963   -5.49179392114232
H          -3.83950070038237  -12.43403548191525   -3.82217192637579
H         -11.51610311078711  -10.47805072111858   -5.17891766286753
H         -12.03333300933093  -12.19186015757319   -3.47128799098634
H         -10.39565094932484  -12.81015649864762   -1.78868469756738
H         -10.35341732392784   -8.56254662793424   -6.72555227757011
H          -8.78357649634502   -6.98494689579110   -7.81554448734479
H          -6.48212890765022   -6.77510908735275   -7.01986608436666
H          -5.73100207689689   -7.42402065628987   -2.97840065533362
H          -1.94417130879263   -7.78594279501572   -5.39685752008849
H          -1.28655084391363   -9.04088812731953   -8.92454858370114
H          -4.19517024432542   -9.61106538563817   -9.73730122843000
H          -3.19608508579649  -10.02399369766454  -11.90699999912649
H           1.07528502403240  -11.23134813821102  -14.67340734029457
H           4.76127449275383  -12.33507252898428  -10.66593502925492
H           3.41227099155469  -11.72703929911193  -15.39724352836024
H           2.48313198873858  -11.86992617251085   -9.93227122841641
