105
 SCF done       -228.149703602457          0.000707763329
C          -4.91241101343103    2.77052516461550    2.87351315852236
C          -5.36490881466795    3.22804422322249    4.07909420513649
F          -5.77530865952731    4.49577824557539    4.20681909068205
C          -5.40691177450113    2.37506798740885    5.20121513048153
F          -5.85599499736472    2.85171431731397    6.36896525113616
C          -4.99433345434880    1.07592946480488    5.10195923709090
C          -4.52224201493176    0.57484169786098    3.87311833274232
C          -4.48165425489372    1.43512109327567    2.73705128481341
C          -4.02107493600865    0.95253731352009    1.49108374553799
C          -3.61765680306328   -0.35336580464550    1.38165206573905
C          -3.65621177927172   -1.20064946561452    2.52265230509683
C          -4.08992960324194   -0.76272336611667    3.74103472650170
C          -3.18088025804662   -2.54721577550655    2.15792048225027
O          -2.99240388409391   -3.46884872883227    2.91770528284910
C          -2.89446556167338   -2.48896155263617    0.69456031143911
C          -3.12910280020594   -1.12612243423862    0.24315981215749
C          -2.97750856814928   -0.64072820441963   -1.02983714286021
C          -2.54680368684239   -1.37574798274212   -2.15527766585275
N          -2.21388262522168   -1.89689544305399   -3.12297121299099
C          -3.23928636191935    0.69610815071294   -1.40199651179982
N          -3.42652760044140    1.76617134188900   -1.77190728825272
C          -2.39059382957725   -3.49991842356642   -0.07204084176370
C          -2.29306959054808   -4.88249185930315    0.22940393967031
C          -2.96471145471607   -5.64534563581272    1.16016602538444
C          -2.57797605772203   -7.01041472715705    1.01379652520370
C          -1.60343110325345   -7.04830974320191   -0.09074716373689
C          -1.45621066492378   -5.78345116947663   -0.56031725206951
C          -0.94985380499983   -8.18517396365267   -0.58094342435182
N          -0.40738497727021   -9.11013230594003   -0.99182158541246
C          -3.02504590522210   -8.07815707378959    1.75874488708453
C          -2.62954777670880   -9.43795685058494    1.65817389378377
C          -3.30925556597446  -10.17872703133768    2.60552398732345
C          -4.18160069674771   -9.27326122215015    3.34376287995931
C          -4.02636301126890   -8.02163094535724    2.84570774489649
C          -4.74878158243444   -6.90342141999754    3.28539959769425
N          -5.38816772869864   -6.02924028418972    3.66554365853835
C          -3.21243142297632  -11.56860807800677    2.82248029073129
S          -2.22327407832555  -12.58187829349973    1.80233540440663
C          -2.66635743493322  -14.04615536831856    2.63375100403754
C          -3.53343847590726  -13.74620422825043    3.70415796119090
C          -3.83239405942841  -12.35759877273074    3.78655354901363
S          -4.88782171426618  -11.97380980993963    5.10290286848673
C          -4.90017642197998  -13.65753913149643    5.53933416066690
N          -5.65924469046856  -14.02374188313559    6.67187824216931
O          -5.67065088046780  -15.19547230548964    6.98549733400509
O          -6.24453003680917  -13.12503012920234    7.24220938125996
C          -4.15670108888614  -14.47660623318835    4.73718726829534
C          -2.16016631866623  -15.26910760817785    2.16394947132877
C          -2.58262385975398  -16.49465595411674    2.59616061058691
C          -2.11739929763077  -17.76449092743706    2.18416134792489
C          -1.05081537767106  -18.03240183881961    1.28205084097712
C          -0.73921565112491  -19.37858277919917    0.86779799338194
N           0.32153410743828  -19.59939525252512    0.07845973927011
C           0.99776969372894  -18.58607679088081   -0.40315248139461
C           0.63938385770819  -17.24660989771280   -0.05776786797814
N          -0.33094094174791  -17.01569219380776    0.79554500484391
C           1.36684183899080  -16.15187279466999   -0.58836792660737
N           1.97380560478561  -15.28676896750918   -1.02861581399221
C           2.08192150461657  -18.87120778463285   -1.27193004286133
N           2.92497910204186  -19.11493657386358   -2.00723258808865
C          -1.49660152304477  -20.50169851021612    1.28375767545179
C          -2.48446997747628  -20.24514031613989    2.25299745563312
C          -2.78905215847188  -18.90588809532754    2.68620286185513
N          -3.78809211702340  -18.89213515150827    3.57114611852848
S          -4.28390386521455  -20.39445614652480    3.82666560655847
N          -3.27681737130254  -21.14683844122419    2.83625467008558
C          -1.27129760898691  -21.82597586416738    0.81254890572728
C          -0.71259526174424  -22.23369502211146   -0.35594546421690
C          -0.16615582331987  -23.62275317707082   -0.45862365183380
O          -0.39932477395230  -24.54505507811685    0.28349564028560
C           0.75665431376428  -23.58113933808537   -1.60923058839785
C           1.63637430354448  -24.53281177203333   -2.03922889063777
C           2.46879479157822  -24.24773298702033   -3.14467664830336
C           2.38263028891500  -22.97285734546981   -3.77800839580100
C           3.23220184787356  -22.68818423316195   -4.86576811819836
C           4.11937969746186  -23.62816855589987   -5.31012891955080
C           4.19893613832918  -24.89116099840912   -4.68780310704326
C           3.39252328061040  -25.19541674587402   -3.62700787949066
F           5.07620973091093  -25.79301665208532   -5.14529907559091
F           4.92364044982932  -23.36054724429472   -6.34516520587675
C           1.45355878311641  -22.01144436194519   -3.32000712143765
C           0.64508113752399  -22.31705785583717   -2.25807978167181
C          -0.39231393261711  -21.54190437279140   -1.58841431620284
C          -1.08235454312973  -20.49697702420169   -2.14466089329239
C          -2.17171553652172  -19.86330724748221   -1.51792719548963
N          -3.04246832070832  -19.30187583372677   -1.02187942523336
C          -0.77467653431805  -19.93202423578042   -3.39982920909546
N          -0.55952605720013  -19.41646060579698   -4.40180102427768
H          -4.88851880875822    3.43644241892015    2.02503442938167
H          -5.03292140294015    0.43514565530296    5.96885974950484
H          -4.00248033520797    1.63122524615507    0.65410986361790
H          -4.11033938620467   -1.43295658252686    4.58676961916924
H          -2.01570407034379   -3.24129589633763   -1.05545071328242
H          -3.67511281607658   -5.29481858533544    1.87986897721006
H          -0.82323286468106   -5.47033086193990   -1.37038674982206
H          -1.91092936300576   -9.82254563439652    0.96099529586456
H          -4.84302022278159   -9.56019410396210    4.13932314370050
H          -4.07492663643494  -15.53110980029878    4.92382832643441
H          -1.41016143238192  -15.21496136091401    1.38778437800784
H          -3.39387914508928  -16.55436321936749    3.30600408318150
H          -1.54431263033325  -22.61474458034190    1.50683935230963
H           1.70084955296549  -25.48766286613736   -1.53999182162137
H           3.18364791272669  -21.72612757201355   -5.35107033574396
H           3.46820942064773  -26.16507194988306   -3.16028932628664
H           1.41987211328326  -21.04899108485324   -3.80510551853855
