117
 SCF done       -247.356737807247          0.000384116602
C         -11.87109144127302    2.13455703362201   -6.67001791469508
C         -13.00286971434388    2.72039893930125   -7.16274964368146
F         -12.92311149392436    3.86501757667557   -7.85244113461166
C         -14.26621433639314    2.12991548225916   -6.95286002252410
F         -15.35767767390259    2.72696937181620   -7.44793388759368
C         -14.37935062864125    0.96252480454586   -6.25152017826700
C         -13.23175319370182    0.33385872587732   -5.72914880600858
C         -11.95328418183666    0.92976253482974   -5.94238110304251
C         -10.78883909183225    0.31824662338784   -5.42753589970760
C         -10.90376650616294   -0.85330193417961   -4.72684815080089
C         -12.18364396044027   -1.44560679228127   -4.51998517157300
C         -13.32540684476077   -0.87202443464503   -4.99988245617934
C         -12.02341709853788   -2.68621447523740   -3.74080745615643
O         -12.85854010984393   -3.30703687505930   -3.13143569483322
C         -10.54210009413722   -2.94420432984892   -3.75625673333625
C          -9.89834484421560   -1.67962684057849   -4.07569044510506
C          -8.64059293901599   -1.30305072712295   -3.70040435474519
C          -8.05025181666299   -0.06734822341224   -4.03876433833052
N          -7.52721041098977    0.91664281818545   -4.30934677264117
C          -7.87698975809213   -2.08872955652343   -2.81465306592195
N          -7.29938152036211   -2.69659394126452   -2.03050836469624
C          -9.98092776247764   -4.16552163436298   -3.65434085269462
C         -10.75754625452227   -5.36872504106057   -3.51542206477632
C         -11.88642711229268   -5.74052152999418   -4.21839692623681
N         -12.48387187488033   -5.12444564120408   -5.33623293568356
O         -12.03005604498849   -4.06544432614984   -5.74966069523397
O         -13.41417918113778   -5.70629243213347   -5.85823777376431
C         -12.38638345464845   -6.99751016921921   -3.70541635016941
C         -11.54501805020474   -7.43386378701467   -2.74430109622451
C         -10.45018915733071   -6.49463126321641   -2.61550072333208
C          -9.35257443098889   -6.62393651005945   -1.79651133464779
C          -8.51862367301577   -5.58240777078192   -1.28173425082945
C          -7.84711618679754   -6.06500724848693   -0.20628452544759
C          -8.13819083196638   -7.46521750798477   -0.03819511502836
N          -7.69609051390974   -8.12563260526953    1.09346492943937
O          -7.12468940593534   -7.47142938632388    1.95883912818819
O          -7.97068511511363   -9.31713058796626    1.27063225044123
C          -8.97465327071411   -7.87933995774179   -1.08519366560611
C          -9.36025945848134   -9.12224395950563   -1.60685531441100
C          -9.17014494180732  -10.37775378224664   -1.09053535461067
C          -9.75272140775799  -11.53134188022619   -1.64180176131191
S         -11.00376485297509  -11.47959641521773   -2.88069998112582
C         -11.32076845603014  -13.16277441329657   -2.72142130233260
C         -10.49476824715171  -13.74879509959962   -1.81619791980804
C          -9.58870675807091  -12.84711587678301   -1.21842235033896
C          -8.66144491575220  -13.47826704031182   -0.30362196024394
C          -8.93502085540867  -14.78280748014672   -0.12880026794126
S         -10.39126503515920  -15.40001146675254   -1.03874157784247
O          -9.91773020448631  -16.36988977777780   -2.01844293648233
C          -7.52067829180963  -12.71907468693762    0.17546579150817
C          -7.20500746642577  -12.50965344940412    1.46549896063034
C          -6.22791062974569  -11.58575955672845    1.94966818140503
C          -5.57232010298574  -10.53027178405432    1.33431611265052
N          -5.51483069914783  -10.15010227104360   -0.01890736499107
O          -5.53339708207112  -10.99973464142534   -0.89401952056439
O          -5.46396177789946   -8.95174540073481   -0.24559334711309
C          -5.02777876199386   -9.64151569314080    2.34143184821430
C          -5.37744825355102  -10.09747945291126    3.56323826966187
C          -6.10810030468862  -11.32871488174654    3.39947196095038
C          -6.56954276511631  -12.12601680252074    4.41720426468516
C          -6.64185503457093  -13.55752693036070    4.44753316932814
C          -6.82588821489713  -13.95258128842122    5.73633517310384
C          -6.99285046674789  -12.78877034051999    6.56417534762645
N          -7.29696285910923  -12.86602490375141    7.94032107619713
O          -7.38265801661743  -13.97680673922646    8.42773407156043
O          -7.43957095315896  -11.82670718711624    8.55968545754548
C          -6.87924294308039  -11.64967446978267    5.78089315848905
C          -7.24072741915318  -10.32282575346550    6.10701605973111
C          -7.72256247055599   -9.43144988615144    5.19165055476992
C          -8.07602113082523   -8.10918139594138    5.52904501827129
C          -8.72741135849080   -7.19609686111099    4.75089603257632
C          -8.55868961193572   -5.75178980005833    5.08758533739320
O          -8.13067880692606   -5.29803522010017    6.12052411189097
C          -8.97940454856068   -5.02494610427197    3.87703481367162
C          -8.85418439469301   -3.69497761220249    3.60045690161894
C          -9.33524694214684   -3.20232593895126    2.36771540910259
C          -9.98849469919613   -4.09411855023561    1.46827952679263
C         -10.50670156469685   -3.58490764942497    0.25887742059340
C         -10.34615643263616   -2.26362688301316   -0.04713100985582
C          -9.67183167540098   -1.38988448079767    0.82759991012996
C          -9.18555634739923   -1.84595708824171    2.01936099001178
F          -9.52456494406640   -0.10670182123383    0.47680079957957
F         -10.82554493910569   -1.76764186830536   -1.19928181403411
C         -10.09228966551208   -5.47026891382589    1.78077645508253
C          -9.56423072821591   -5.93956609353952    2.95639324366075
C          -9.46861977444027   -7.29242071926426    3.51200412910187
C         -10.08780431708643   -8.40321618476983    2.99521956226038
C         -10.13476205316703   -9.68492556560523    3.58406577201854
N         -10.24993314879639  -10.75288973239653    3.98900808262400
C         -10.77927118555673   -8.42206702874680    1.76609173576953
N         -11.30523381487035   -8.52208017857117    0.74943357259744
H         -10.91279587772777    2.60058201643169   -6.83845300263281
H         -15.35305827873735    0.52356808353147   -6.10037248150533
H          -9.83163114713738    0.78223842687108   -5.60759778947650
H         -14.28583766345965   -1.33536356629873   -4.83459459701576
H          -8.90485824485910   -4.27741208737483   -3.70287780391054
H         -13.29319994862949   -7.45361675445122   -4.05248122378824
H         -11.70908746836664   -8.26933179886948   -2.09357320798647
H          -8.50543092041443   -4.56101628304050   -1.60248152521252
H          -7.18938901560489   -5.52063644911053    0.44422567956348
H          -9.87200844257813   -9.07516321447002   -2.55962886291388
H          -8.61403031311778  -10.51635535655932   -0.17459033376645
H         -12.08872687517871  -13.61581335793897   -3.31688679120438
H          -8.37071306906355  -15.47331721793202    0.46987811361076
H          -6.93871579074213  -12.26724203295590   -0.61835550737771
H          -7.80368105158820  -12.98898810586119    2.22837302424261
H          -4.45940487324996   -8.76241238023782    2.10362531153814
H          -5.08604837146866   -9.68635063093190    4.50934684212498
H          -6.41987616829996  -14.19726951932343    3.61517307179385
H          -6.85485037512333  -14.95648486033703    6.11668016230377
H          -7.24973662410626  -10.06324477317376    7.15876565637083
H          -7.83932562513073   -9.73310872168791    4.16152944854465
H          -7.71488776879664   -7.72199650323674    6.47753946472624
H          -8.39085209842953   -3.02901936625055    4.31209995421382
H         -11.03629435961038   -4.23001997182465   -0.42491531825250
H          -8.68147371731268   -1.16627081578519    2.68800087598893
H         -10.58457420006492   -6.11792413790865    1.07267993953505
