110
 SCF done       -228.986236399182          0.000474477367
C          -7.60877728863265   -1.87798426335691    9.60008523067646
C          -7.68460464851297   -2.52373304580687   10.80236521463344
F          -7.90694841312277   -1.83081107196849   11.92577135420763
C          -7.53116886808538   -3.92317169685840   10.87609648665298
F          -7.61096073162054   -4.52930994701155   12.06750692438976
C          -7.30393762832078   -4.65749529687385    9.74590595766924
C          -7.22153010206013   -4.02125467573048    8.49203008780906
C          -7.37622454838026   -2.60627433615729    8.41604020713406
C          -7.30097450021561   -1.94517061231386    7.16849034164860
C          -7.08194013279392   -2.67703238906341    6.03112234979727
C          -6.93342889864679   -4.09046039824886    6.11736176740268
C          -6.99484244729098   -4.75652629861490    7.30758070691444
C          -6.73939790234839   -4.63722479786168    4.76525230149941
O          -6.51449514704550   -5.79609986989899    4.47106123420772
C          -6.85229141117272   -3.49652133638689    3.84349727501528
C          -6.96838075264011   -2.27984377832127    4.62931457546984
C          -6.93224367251270   -0.99123749695375    4.17003750740850
C          -7.03608037570229    0.14432624788895    5.00257500357248
N          -7.11753135633993    1.10422755795505    5.62600269355965
C          -6.74630314971176   -0.60607353634289    2.82409721437066
N          -6.57821434309905   -0.21263759567687    1.75926543779510
C          -6.91362752997385   -3.60102569540243    2.48264505517016
C          -6.88579332653399   -4.76252895847743    1.68441197361123
C          -7.07525684885125   -4.69893811545510    0.30056529778669
F          -7.28786837889760   -3.54706066364788   -0.33795739302279
C          -7.04641848072052   -5.93030556156375   -0.34040615249190
F          -7.27623381950355   -6.05822901885629   -1.65242363449542
C          -6.83249038498800   -6.98747355893739    0.53476970843014
S          -6.67929436432407   -6.42048168740285    2.17241453557652
C          -6.78645781466228   -8.39759430665016    0.32002613257750
N          -6.33353504842648   -9.07454542566638   -0.78855010454861
C          -5.63709705192280   -8.54182329942880   -1.93798142770776
C          -4.31468281427853   -7.88693787886753   -1.55219812470538
C          -6.44647481746432  -10.46484822885730   -0.61894809598859
O          -6.09113269504323  -11.27365464460489   -1.46261485334636
C          -7.03269320356944  -10.63305077501345    0.68629248803207
C          -7.20733433936660   -9.34280486011106    1.24651357867648
C          -7.85827961828415   -9.49359101909918    2.53289508255079
O          -8.22919915637617   -8.69338910892373    3.36124840305314
N          -8.00689670274860  -10.88963057972649    2.67622418635162
C          -8.66758813199989  -11.45685080786429    3.82692664954179
C         -10.11824632995484  -11.82137145185472    3.52145017626483
C          -7.53215326616324  -11.57536931672207    1.58881718424880
C          -7.56678915485823  -12.98541495248609    1.44743404976672
C          -7.12951190945757  -13.56107866670343    0.30073338251974
C          -7.12222059304827  -14.94426752950918    0.00707811624624
S          -7.34984960798357  -16.17604543031824    1.19964067759124
C          -7.13292530488780  -17.44306182980410    0.02746773007825
C          -6.86268853708387  -16.90855141806057   -1.22768865960089
C          -6.88241059567489  -15.50490295460748   -1.24297568505833
C          -6.75974836890400  -14.69553074548302   -2.49072400963337
N          -8.07996855997192  -14.00183222742113   -2.78863321474582
O          -8.72855074178695  -13.61184181285638   -1.85713918467443
O          -8.35805207193983  -13.86701338279405   -3.94977702962899
C          -6.34791894974352  -15.52485795663409   -3.70849564610171
C          -5.53746924828179  -16.74806414906500   -3.30343197163091
C          -6.40166757203675  -17.66899499089294   -2.43153035095177
N          -5.54590750727767  -18.81829158590128   -2.04296972843148
O          -5.75990961076071  -19.87063597580739   -2.59697116644501
O          -4.67774289432681  -18.61545990269173   -1.23347380807097
C          -7.19245870897796  -18.77709790496861    0.51033312009868
C          -7.52420431071247  -19.95431773568503   -0.08203488911880
C          -7.12269549243610  -21.21768002511011    0.61677115002244
O          -6.73720299862445  -21.30934566843330    1.75644322256535
C          -7.26640966103928  -22.27977049460923   -0.39355292098019
C          -6.90032715251532  -23.59255296222862   -0.31485821120426
C          -7.11106239713921  -24.43063099690195   -1.43235925823282
C          -7.69346129202112  -23.88761231976482   -2.61484257174427
C          -7.89440151768046  -24.72870186129405   -3.72777576337616
C          -7.53707204241498  -26.04652856401044   -3.66891482112957
C          -6.96192412009972  -26.58248761458724   -2.49876817983998
C          -6.75265825796849  -25.79245271271475   -1.40319540869045
F          -6.62118781847019  -27.87726163276155   -2.46984831185222
F          -7.73135085802032  -26.84464535169285   -4.72618467578737
C          -8.06553702128533  -22.52519814413397   -2.66548836757194
C          -7.86030454425293  -21.73477862035705   -1.56702377908786
C          -8.14991604672480  -20.32399904236120   -1.33235871765454
C          -9.02723485640138  -19.56134852096635   -2.06028859356107
C          -9.43816838738134  -18.27164384262489   -1.67119414561859
N          -9.78264017558733  -17.21634940408042   -1.37931134235147
C          -9.67124705866410  -20.00609258670629   -3.23422025235966
N         -10.20622370505747  -20.30264299795538   -4.20471536704557
H          -7.72805699747806   -0.80645332804829    9.56173665542616
H          -7.18955666113741   -5.72764805183973    9.81869149816664
H          -7.42703763475210   -0.87495680175569    7.14551082445211
H          -6.87981615874632   -5.82907961431707    7.34128964166159
H          -7.03901514043898   -2.68934515528222    1.90885580530909
H          -6.27391031731704   -7.84129181179394   -2.47861090249520
H          -5.45004712880498   -9.40398549975628   -2.58454300902465
H          -4.47489754029689   -7.01560504522130   -0.92154263228375
H          -3.79335984092809   -7.56996034742916   -2.45078292672288
H          -3.68570511842966   -8.59298912076522   -1.01439655542517
H          -8.63689521712453  -10.68712999083194    4.60298587273003
H          -8.10974515312790  -12.33118846164036    4.17319789753687
H         -10.66874006300699  -10.93214637619761    3.22490816424014
H         -10.58685807629523  -12.24033107099924    4.40746663894355
H         -10.17727055529514  -12.54866518199138    2.71500673024521
H          -7.97247720744183  -13.58866680330705    2.24655870884258
H          -6.75641294335449  -12.91135330364388   -0.47832028108830
H          -6.06838284612511  -13.85832079654647   -2.32727229510144
H          -5.76921237021396  -14.91136538386149   -4.39810582341357
H          -7.24500837852466  -15.85081560119222   -4.24052683417222
H          -4.65425003527719  -16.45008083079579   -2.73324566364741
H          -5.21282601106260  -17.28505405080243   -4.19603527330669
H          -7.23192144442857  -18.07702371688866   -3.02181433605625
H          -6.89079377823016  -18.88822044630368    1.54961374577790
H          -6.45306422649240  -23.98507054724850    0.58557974869989
H          -8.33509293872110  -24.33543653605329   -4.63049003936566
H          -6.31059640498005  -26.21757278471808   -0.51574161683343
H          -8.48855971814020  -22.13655522620156   -3.57763970076582
