116
 SCF done       -222.069669336768          0.000873876983
C          -7.33137871343201    2.84442989616160   -2.88459147366357
C          -6.39753653116846    3.21522287820230   -1.95818562247276
F          -6.24607785380722    4.50406766484757   -1.63394575157529
C          -5.58334722736026    2.24833605656633   -1.33232373090816
F          -4.67803325369023    2.64126566309356   -0.42881743861445
C          -5.71476384441812    0.92372653985118   -1.64232893492517
C          -6.66852427148781    0.50989808755727   -2.59287167583633
C          -7.49272267700357    1.48619852052723   -3.22594276047953
C          -8.45815376618251    1.09397865608840   -4.18004008638124
C          -8.59796955311699   -0.23377278870864   -4.49223663344303
C          -7.76566384859746   -1.20260098281810   -3.85811862044922
C          -6.82422023929227   -0.85170970485231   -2.93228617717981
C          -8.09496070591544   -2.53993172954548   -4.37278350081328
O          -7.60241681153267   -3.60693371386785   -4.07858004408433
C          -9.17753930121262   -2.32684962321641   -5.36909408346099
C          -9.50639773251506   -0.91075301881400   -5.41139253594354
C         -10.50239557965744   -0.33295351339553   -6.14510305777897
C         -11.40617682464367   -1.05869476166517   -6.95230381459727
N         -12.18619784384682   -1.60944948615537   -7.58797723236948
C         -10.77819988228469    1.05193484592151   -6.15720385071237
N         -11.04542745339240    2.16655269209257   -6.19991146276206
C          -9.63862996581299   -3.35441733622574   -6.11320591515512
C          -9.12074808488386   -4.69838698837363   -5.95225016733624
C          -8.21280823563470   -5.24092152822826   -6.82447992773054
N          -7.69782956515911   -4.53754287842737   -7.92275495912373
O          -8.10952444755541   -3.39347207316626   -8.08360959689851
O          -6.89321458770214   -5.09041027983809   -8.64343699166710
C          -7.81511324304461   -6.55670813437880   -6.37393405872025
C          -8.49743590212359   -6.82707934684368   -5.24147880905111
C          -9.37497566665973   -5.71677190052970   -4.92480369013442
C         -10.27702731085319   -5.59588263754775   -3.89792296236873
C         -11.00900986218457   -4.40866886363141   -3.55565874391236
C         -11.52499662859065   -4.55820048197216   -2.31308863414880
C         -11.19048803225509   -5.86874115456066   -1.81486022552375
N         -11.74042182046744   -6.31767696275827   -0.59838342173129
O         -11.38576666658814   -7.38855487312448   -0.13552292792799
O         -12.56647452583564   -5.59123130567122   -0.07255820849553
C         -10.48912672459509   -6.56704492363818   -2.79344085720543
C         -10.16597228148395   -7.94018427489741   -2.89218247024410
C          -9.79461846850154   -8.77711744582121   -1.87783507047778
C          -9.60159279782680  -10.16646522021992   -2.02454925263174
C          -9.14276251482682  -11.01359329508368   -1.02501021275869
C          -9.15857962391223  -12.34863055816570   -1.49534106883812
C          -9.64956015662238  -12.28553432420442   -2.88583772837260
C          -9.89643357520132  -10.98538239665169   -3.19226833548641
C          -9.82045704850647  -13.36266011808164   -3.76406345474294
N          -9.97335521309493  -14.22085334099171   -4.51121316464531
C          -8.82325284992565  -13.49355585706124   -0.79592853688943
C          -8.97750472763680  -14.83877416503214   -1.20063926752292
C          -8.58272994201735  -15.67666538499055   -0.16551010072458
C          -8.12641835857893  -14.83447976085790    0.93385254547199
C          -8.26607185454300  -13.53466121543230    0.57436036420708
C          -7.89586838549792  -12.44268745199765    1.36829869549366
N          -7.56552930425226  -11.57638030448454    2.04591797972853
C          -8.63541547229390  -17.08502909982699   -0.13051018305889
C          -9.09197416404514  -17.93898136643846   -1.12797581151671
C          -9.05574129615240  -19.26875516691775   -0.65090288127658
C          -8.49470388330202  -19.20756765203014    0.71414718386470
C          -8.24450723360680  -17.90638277054103    1.00762928126673
C          -8.16683350132735  -20.29125842479494    1.53946337561743
N          -7.83841734927333  -21.14557039795948    2.23272886813606
C          -9.49805281554229  -20.41399371843331   -1.28837747016159
C          -9.67601551019302  -21.69504521358982   -0.71917146665178
C         -10.14374520529534  -22.56965935617932   -1.69008501281085
C         -10.25686943735894  -21.82153980110653   -2.93506325744224
C          -9.90147961523332  -20.53139033780350   -2.70038664278822
C          -9.88210320265398  -19.51706897309218   -3.66503144407086
N          -9.87181278161738  -18.71081353360512   -4.48236866240676
C         -10.47132552253143  -23.92151336284714   -1.42281394371792
N         -10.65103147616266  -24.94291641137148   -2.32293086585953
C         -10.43494590089437  -24.92890430972239   -3.75166971510582
C          -8.97044515759690  -24.70188238042237   -4.11116398433634
C         -10.96100830739764  -26.16043684747028   -1.68308794254683
O         -11.14476723354393  -27.19932135703055   -2.28137193150731
C         -11.00106787585299  -25.83017877184822   -0.27574763888225
C         -10.68934584203078  -24.45899811107752   -0.14596498851434
C         -10.79415280317197  -24.11173378761725    1.25704044342471
O         -10.66478753042370  -23.07211120845256    1.86170967822079
N         -11.12886868014363  -25.33454817012867    1.88947178708996
C         -11.34981137775821  -25.38622928209736    3.31497789311018
C         -12.83707869807333  -25.34730866249839    3.65720479402841
C         -11.26352143734281  -26.35383042807871    0.99331780186112
C         -11.60154695523475  -27.69685069385832    1.36066128111617
C         -11.75228754676282  -28.67816830584849    0.46608265619043
H          -7.94594798427753    3.59699810641865   -3.35341967749397
H          -5.08432224173796    0.19649973865776   -1.15514235105456
H          -9.06431621205247    1.85543301126039   -4.64384294542847
H          -6.20665965862261   -1.60448514897895   -2.46642619103700
H         -10.36622162879145   -3.20075442146977   -6.90111370478223
H          -7.08270905211940   -7.16046835058967   -6.87393216370954
H          -8.38359814256886   -7.70488156250616   -4.63883852367102
H         -11.10092404017612   -3.54398536654839   -4.18079176973891
H         -12.10789405965155   -3.85187887715721   -1.75250851073264
H         -10.22713974923689   -8.34405866626850   -3.89473110609983
H          -9.61100232932439   -8.37847581495967   -0.89190478891581
H          -8.85202335734240  -10.70593820916761   -0.03976219670838
H         -10.26315451573121  -10.62465163954567   -4.13513927319880
H          -9.36502240317412  -15.15388306286159   -2.14924231464249
H          -7.74046759287179  -15.19067148584771    1.87027587171506
H          -9.45651251395608  -17.64155957188754   -2.09160480194745
H          -7.82008239287518  -17.53843227325084    1.92260766260960
H          -9.50041240267175  -21.93836991498596    0.30943433144648
H         -10.60155696882859  -22.19958801800265   -3.87741613324421
H         -11.08106809336097  -24.18251128524425   -4.22005130595725
H         -10.75030587095044  -25.91711919425019   -4.10038666982498
H          -8.61738976985258  -23.73935228412078   -3.74753393418663
H          -8.85162577093071  -24.72995474545302   -5.19064904445227
H          -8.35424084328025  -25.48390993803249   -3.67392432479429
H         -10.85545303261461  -24.50311910411381    3.72918785142573
H         -10.87636748004963  -26.28110968038974    3.72678275529365
H         -13.28014896972211  -24.42802432338180    3.28227741110678
H         -12.96573951470040  -25.37887537893115    4.73529721180824
H         -13.36336925038907  -26.19105138114842    3.21597557339216
H         -11.73030706649257  -27.89575624000035    2.41545856597103
H         -11.62954698273083  -28.50627470672944   -0.59054488194035
H         -12.00187400096820  -29.67810770653896    0.77638584859597
