112
 SCF done       -226.022883193625          0.000853551100
C          -6.71509721808054   -9.98285757764692   -6.13954274505273
C          -6.53898069517801  -11.30862766983788   -6.41952467989667
F          -6.60568949767849  -11.74467987523470   -7.68265776119236
C          -6.28313684720099  -12.23257201953035   -5.38475299552213
F          -6.10828555494813  -13.52465944181164   -5.68706310069568
C          -6.21299148220460  -11.81748773752664   -4.08463407888863
C          -6.39190664523691  -10.45767243676445   -3.76287337285475
C          -6.64284860004092   -9.52100701805440   -4.80891873385697
C          -6.81058425573973   -8.15034195870340   -4.51246509799996
C          -6.71970511875862   -7.72903717153118   -3.21006603881018
C          -6.47370577881840   -8.67125721401441   -2.17166885652869
C          -6.32533919635966  -10.00288525366861   -2.42811017653748
C          -6.41548172931041   -7.97055677615429   -0.87567511024858
O          -6.54071811858957   -8.44557952250708    0.22311613713850
C          -6.37041454608518   -6.51039080630713   -1.23978915276576
C          -6.81033499476911   -6.39587006725732   -2.62614361255436
C          -7.23420006343015   -5.26176002409967   -3.25789827363808
C          -7.65023194816356   -5.22069719680931   -4.60741116412023
N          -7.99902313206912   -5.13112473237515   -5.69637891535895
C          -7.35196979550663   -3.99975033219172   -2.63441946458718
N          -7.46992390622306   -2.95465163689785   -2.17604777283965
C          -5.91879219580699   -5.51455909612817   -0.44742946830906
C          -5.19811519730154   -5.77879867781582    0.75942039296247
S          -5.06624484148993   -4.59731184693749    2.08548673242594
C          -4.06516810257386   -5.70100353144396    2.90583822639181
C          -3.87319866105916   -6.85624514283218    2.16017674811410
N          -4.51747188267902   -6.83813133509275    0.97298662093298
C          -3.13205028874793   -8.05419427181135    2.40902497350033
N          -2.52722541712799   -8.45022884207078    3.56430695803570
C          -2.41576429242256   -7.73379921981727    4.81322907181863
C          -1.26338887929088   -6.73216122244143    4.79153558574022
C          -1.93468571975524   -9.72923928583987    3.42309179360854
O          -1.35130995514456  -10.30588606725137    4.31310273492103
C          -2.22783069075358  -10.09907523938562    2.05759516400049
C          -2.96174425530121   -9.06736541718657    1.45294753593978
C          -3.21237457490531   -9.46229345728183    0.07132502363396
O          -3.77009876814432   -8.92788916579301   -0.85831631739234
N          -2.58417193176657  -10.72893970578297   -0.04537518457260
C          -2.71709948276572  -11.52655790768649   -1.24091636266862
C          -3.64007176018041  -12.72043320270783   -1.01114104293933
C          -1.98158952507513  -11.11174188617042    1.12159518849125
C          -1.12034077680004  -12.16920703853499    1.44641644810867
C          -0.57209243489516  -13.18972831981296    0.71164615872874
C           0.43545407685844  -14.00199613746384    1.25743282960764
C           0.74173202150740  -15.33649556195940    0.96820262057760
N           0.18978439064163  -16.13071984840981   -0.03726247663618
O           0.53549719328231  -17.30141020239859   -0.09451177956824
O          -0.62782458278303  -15.62810637653801   -0.79885977716796
C           1.63194747662981  -15.83351672448771    1.97034562691306
C           1.87012403671542  -14.84851932880864    2.88732921841304
C           1.21827668374712  -13.65789015205526    2.45863884051219
C           1.36657722823488  -12.37043347880953    2.94919780762367
C           1.42429001216309  -11.16928237974825    2.15063488015357
C           1.66410167462427  -10.11588682989392    2.96568426006204
C           1.72232008077594  -10.59666265246094    4.32389400534621
N           1.75644782557791   -9.73485563926643    5.43284391842376
O           1.92263868208803  -10.21104935688743    6.53991404325255
O           1.60734785882792   -8.54305028397934    5.21139836109599
C           1.57161681432515  -11.97183865741277    4.34196742761396
C           1.47703320052988  -12.83129317920642    5.48320915735623
C           0.63516453541700  -13.88308674909082    5.60557493594155
C          -0.46527013767252  -14.11968913601999    4.71801832725677
C          -1.01127315416937  -15.25965482863598    4.22623113660938
C          -2.00652533978895  -15.10732336371658    3.12178679379566
O          -2.62343056881353  -14.10133100127623    2.84341100684835
C          -1.99646169042598  -16.38402331650725    2.39748317391731
C          -2.61887987571922  -16.70747354441873    1.22438650550625
C          -2.37244502116589  -17.96954957549405    0.64212716306141
C          -1.48861008552693  -18.87789654754875    1.29483672765752
C          -1.21804805321228  -20.12161381583670    0.69244597874235
C          -1.79210891422681  -20.44385368583301   -0.50488034758543
C          -2.66265601748822  -19.54281653177319   -1.15088710744278
C          -2.95074762709611  -18.33102623722033   -0.58909270098526
F          -3.21154937416115  -19.88871763055508   -2.32208422981474
F          -1.53605169104880  -21.62652058707952   -1.07717984863998
C          -0.87975243023222  -18.52506024839023    2.52036534806207
C          -1.12975466303248  -17.29431786449788    3.06793062061023
C          -0.64265914733999  -16.66490561005470    4.29438515023486
C          -0.07423882908600  -17.34469318777641    5.33558904908687
C           0.18631203892484  -16.80536737451994    6.60962767528923
N           0.38571915931696  -16.42995546451743    7.67598789361540
C           0.24079799308800  -18.72135072918014    5.30099799826210
N           0.53370804928980  -19.82993554157279    5.33774111954617
H          -6.91021897159380   -9.28974225992154   -6.94305349994452
H          -6.02071253350967  -12.53777579717077   -3.30501635802246
H          -6.99288593916506   -7.46391088027781   -5.32403108408225
H          -6.14566569883304  -10.69510022728864   -1.62109413692684
H          -6.00925418615718   -4.47654024206725   -0.73748944349841
H          -3.66451225751815   -5.43763742493966    3.86301709758259
H          -2.22087396545914   -8.48925427189940    5.57957842732302
H          -3.37069288334532   -7.25077131688601    5.03336354007321
H          -0.30990463766041   -7.25351488698323    4.74611839231603
H          -1.27850905567659   -6.13906680225092    5.70133528805589
H          -1.33733559579465   -6.06651850111502    3.93399406745756
H          -1.72858086155639  -11.85972242692140   -1.56966108869371
H          -3.13517973625619  -10.86274739778733   -2.00371292791407
H          -3.28042253293615  -13.33251564713021   -0.18778873952425
H          -3.68154504683701  -13.33108212548788   -1.90870509057965
H          -4.64183256803726  -12.37817900145808   -0.76289950599141
H          -0.84396219951355  -12.11737946962906    2.49079717381569
H          -0.94493838555494  -13.46577850788106   -0.26450623773932
H           2.02643122214807  -16.83249466899407    1.97021557577224
H           2.53248839844449  -14.90895292763194    3.72925612570658
H           1.38619087056956  -11.15950379152610    1.07866719227057
H           1.79619765970773   -9.08613264556277    2.69435426704304
H           2.14581829873396  -12.59811860585550    6.30170031954114
H           0.75665957394289  -14.53259291551560    6.45975688953407
H          -0.94157111512940  -13.21629084204610    4.34262794705291
H          -3.26954131240982  -16.00041399041604    0.73304191351777
H          -0.54798142971555  -20.81940001847109    1.16914995108040
H          -3.60677607390724  -17.64500621166195   -1.10100267965213
H          -0.20591410847919  -19.22962048517011    2.97981327670262
