118
 SCF done       -229.211924231409          0.000264864380
C          -1.94169382943106    1.74610096200297    8.78492581183799
C          -1.46756216803751    1.82201383918316   10.06446607141829
F          -1.23288644051130    3.01416329825787   10.62561432142996
C          -1.21946017864593    0.65046560907470   10.80885659731611
F          -0.75406352976827    0.75578773460811   12.05965292302320
C          -1.44969836078025   -0.58122737482831   10.26294676344348
C          -1.93785670527081   -0.69243985400809    8.94643179535957
C          -2.18941700919152    0.49116468946347    8.19275803394221
C          -2.67966416734311    0.40420632584030    6.86998788752307
C          -2.91352366041970   -0.82844565986727    6.31835299803423
C          -2.65518636701235   -2.00465505882189    7.07686059367054
C          -2.17951294800821   -1.95231029116262    8.35577907115759
C          -2.95669367730636   -3.19533611362152    6.26087036079451
O          -2.78461299645206   -4.35230712743124    6.57297202030429
C          -3.41521529173754   -2.67044904811866    4.94516062581903
C          -3.41471849898589   -1.22021020383126    5.00498948784950
C          -3.87698718617468   -0.36912738903056    4.03668761978083
C          -4.44486938361046   -0.77688231595245    2.81017533156287
N          -4.93707662905675   -1.03711604978707    1.80659420031973
C          -3.87586695084254    1.03713837986375    4.15601010433216
N          -3.89539743822627    2.18372304620252    4.19727200583103
C          -3.61092982055247   -3.44900154983256    3.84383182476765
C          -3.73496825852717   -4.86410562408249    3.83382403756377
C          -3.34873536013924   -5.68570261494230    2.79710076077339
C          -3.58031046658530   -7.04435035409570    3.17017781552535
C          -4.23545391295603   -7.00094761676041    4.48565607958921
C          -4.32337446522055   -5.70194449228697    4.87456959666899
C          -4.80050734872646   -8.08231526669788    5.17630545127372
N          -5.32390136999198   -8.93307221914056    5.74209675808169
C          -3.24026287435969   -8.17679823577804    2.46244372950297
C          -3.33838214194355   -9.52207420030254    2.90115029742950
C          -2.93107923148600  -10.36977104260379    1.88251247157593
C          -2.54912674715373   -9.53855471070329    0.74814643089314
C          -2.70558394215262   -8.23316561598100    1.09088194798735
C          -2.41630613798281   -7.14910264260819    0.25366835211584
N          -2.16378665149798   -6.28397146145945   -0.45802492413968
C          -2.89887883152849  -11.77913713497174    2.01512878267383
N          -2.80441543240614  -12.72275175205681    1.02272045280908
C          -2.82394225540838  -12.52763171082107   -0.40905993529132
C          -4.16290134835835  -11.98484824961139   -0.89776879742171
C          -2.83091413890820  -14.03269044753307    1.54228358284976
O          -2.77782112741460  -15.02739737716869    0.84865973410561
C          -2.91808855512163  -13.85431329247174    2.97504318624385
C          -2.96343271260850  -12.47475392209986    3.23480957501918
C          -2.98312270359897  -12.29086023888223    4.67804282841052
O          -2.96749928754120  -11.30294721317038    5.37403356479623
N          -2.98684722788384  -13.60283399051598    5.19055803723181
C          -3.07167982180757  -13.84073948334615    6.61314575320562
C          -4.49755468651917  -14.16844908646372    7.04705948351326
C          -2.95133157899772  -14.54763516547538    4.19987072302024
C          -2.94631604148132  -15.93414252501881    4.43661978142445
C          -2.86191559092127  -16.86361809878304    3.43674828377619
C          -2.85703516471932  -18.25655582045669    3.66468938485861
C          -3.03659100274283  -18.94322715240715    4.85311099802336
C          -2.95188613950829  -20.33754306229347    4.60655536766947
C          -2.68848023605333  -20.48532637673568    3.15929185638145
C          -2.64213972999211  -19.24448816877576    2.61278955520136
C          -2.48107733280816  -21.69019744732539    2.47813509154528
N          -2.30365803346920  -22.67553973343038    1.91412634276887
C          -3.05951428417663  -21.35931303577329    5.52349432306491
C          -2.94574984684210  -22.75422596817050    5.26294548331801
C          -2.96655158096675  -23.44299396000988    6.45595048303895
C          -3.16193090936019  -22.47412047180224    7.52428522779443
C          -3.21078690985080  -21.22851892993732    6.98236642638108
C          -3.36848418225067  -20.03420015646777    7.69341266931750
N          -3.51160912498969  -19.05945660548239    8.28474636119707
C          -2.85921643305978  -24.84124261189988    6.66175289801610
C          -2.34842563706662  -25.78880578791888    5.82952394772518
C          -2.69789833191343  -27.22032496278097    6.07964158930871
O          -3.20203945800059  -27.67041520076929    7.08108661560567
C          -2.34931177952162  -27.92861063150970    4.83427540223036
C          -2.58548507981350  -29.22893520105846    4.49031669249042
C          -2.18984261971143  -29.68261206280371    3.21243324668668
C          -1.56964523412196  -28.77215687086688    2.30737308578649
C          -1.18930978241132  -29.22866970672630    1.02928777012484
C          -1.40828477627674  -30.52864065919249    0.66912131755846
C          -2.01852408329528  -31.42899317839698    1.56618530753486
C          -2.40233378374461  -31.01613971962296    2.81111587859666
F          -2.22076132415327  -32.69718476634185    1.18580469472486
F          -1.04388870233914  -30.96216989713435   -0.54394358887836
C          -1.33365718210235  -27.43287573767351    2.69310655594352
C          -1.70482257967730  -27.02186374761712    3.94527542376163
C          -1.55481821337730  -25.73239746710451    4.61703926626979
C          -0.63302532845769  -24.78206088631827    4.26772144843329
C          -0.33963864411241  -23.63193023501991    5.02581331695745
N          -0.04082377239375  -22.69034846549907    5.61091694264337
C           0.21254958292713  -24.88782761614483    3.14126276137274
N           0.93652213672938  -24.93220057130567    2.25283093278694
H          -2.12692280883424    2.65243635021662    8.22982104083367
H          -1.25450310907768   -1.46811946787422   10.84519916391978
H          -2.85307480239149    1.31732321970197    6.32394459897428
H          -1.99135338018682   -2.86041705829559    8.90813995741837
H          -3.63721654612277   -2.97717902022913    2.86864018792445
H          -2.87250561441287   -5.36972675227584    1.88887244944220
H          -4.80226556668951   -5.33992027919784    5.76309853836224
H          -3.66436366155636   -9.82218780024284    3.87703842099659
H          -2.16529029235185   -9.88151376669135   -0.19272433143950
H          -2.65104638177895  -13.51911264372579   -0.83861940386712
H          -1.99668841666035  -11.87986302788952   -0.70859850482689
H          -4.96260149739784  -12.67225503658597   -0.63238183114292
H          -4.14113298453602  -11.87992244151443   -1.97882783386766
H          -4.38181223930004  -11.01402916068120   -0.45851925359006
H          -2.74790900572954  -12.91357894946923    7.09368079719676
H          -2.38286114596820  -14.64256677124602    6.89074046949834
H          -5.15666031823209  -13.33540317571760    6.81575064806350
H          -4.52081990043855  -14.34276182705865    8.11871467587195
H          -4.86764924481138  -15.05783980792241    6.54175475363203
H          -3.00032570816965  -16.26635995113662    5.46282827809328
H          -2.78316983478860  -16.53177769400927    2.40951737336409
H          -3.22900878539563  -18.51605588088059    5.81673848894437
H          -2.46286533119898  -19.00023170203206    1.58203854686129
H          -2.89622930185683  -23.18596629182411    4.28348480731317
H          -3.22461938422777  -22.72225042157580    8.56765857363000
H          -3.29102405223167  -25.22722468780760    7.58115254701740
H          -3.06838830932580  -29.90147465367246    5.18278890758119
H          -0.71794688943847  -28.55333336780258    0.33255135972622
H          -2.86869903439434  -31.71720038981294    3.48545336891180
H          -0.87694746175353  -26.76039473221901    1.98488183871078
