116
 SCF done       -244.150520105077          0.000476264051
C         -17.84535378284800    0.73225112061791   -1.34718454378959
C         -18.74457191608645    1.38185312372334   -0.54920711432295
F         -19.60109733072923    2.26260272526099   -1.07893056610317
C         -18.78227111508373    1.13458201351970    0.83896309545720
F         -19.67344889748193    1.78630484245785    1.59492939490434
C         -17.91916826091571    0.24131348073292    1.40933651538123
C         -16.97976014240595   -0.44377342939948    0.61403020432303
C         -16.94133041126979   -0.19505036621611   -0.78984306827096
C         -16.00886090994904   -0.87078644332090   -1.60764803227612
C         -15.14231512793526   -1.76852668789875   -1.03921737886151
C         -15.18860230345514   -2.01257053900683    0.36424369783236
C         -16.07643435748653   -1.37076078043493    1.17897607482656
C         -14.16297268089049   -3.00658048954096    0.72090189099598
O         -13.74826902281630   -3.29554089964667    1.81732905445047
C         -13.63596965843820   -3.50103563349391   -0.59171668104244
C         -14.10365577183984   -2.60042584833971   -1.63324772814028
C         -13.63340779635280   -2.52649206490807   -2.91525436199486
C         -12.56096964182793   -3.30349852144692   -3.40339345405913
N         -11.67982235515779   -3.90416061875071   -3.82821078131415
C         -14.12532828351812   -1.62873720057662   -3.88769600940416
N         -14.48574136636975   -0.92006535065893   -4.71445182748216
C         -12.92862885928751   -4.64230191469387   -0.73002957820278
C         -12.68851142120701   -5.59106493140060    0.31892996778836
C         -13.57875052166010   -6.17004626697655    1.20074826961568
N         -14.96706316636776   -5.95350078967222    1.32630120235593
O         -15.55781263787868   -6.61972568769651    2.15314842822744
O         -15.50946469668262   -5.14418308682310    0.58899245790324
C         -12.89800659124232   -7.18873672298427    1.96922723967615
C         -11.62032221094670   -7.27999425537901    1.53357487871690
C         -11.41519281057325   -6.30313961734403    0.49271180317679
C         -10.23461390231853   -5.96961533756761   -0.13409842333331
C          -9.91359152175446   -4.67913584077633   -0.65495163798953
C          -8.57090363937245   -4.61836462259779   -0.89651186229207
C          -7.99098617797163   -5.89109945011804   -0.61825436460483
N          -6.62267854663206   -6.15994242521573   -0.83011968555827
O          -6.20870672987621   -7.29005594380812   -0.62628687530964
O          -5.92804430507982   -5.23236574778498   -1.19750674356291
C          -8.99316716143281   -6.77584891309879   -0.19564403560659
C          -8.84982238676518   -8.15852646789485   -0.05087285339556
C          -9.85573360800663   -9.09646341972183   -0.10127461779229
C          -9.61681659393373  -10.46495401770729    0.02069251344347
S          -8.04010377694190  -11.16762829631704    0.31307219533030
C          -8.63097197681144  -12.81371851135799    0.27830231703780
C         -10.02927780637223  -12.81322277658079    0.06409401503745
C         -10.54728435045060  -11.51148487984887   -0.06817096610246
O         -11.87445696621891  -11.53943975711531   -0.24835097489937
C         -12.22477863529353  -12.84610699040990   -0.23059067769041
C         -11.15740765646536  -13.67439020121846   -0.04607654661991
C          -7.74730022392274  -13.86262570538174    0.49694775278503
C          -8.16514055800391  -15.17687706726603    0.52295080488120
C          -7.43134409597317  -16.29228436346698    0.92133172360798
C          -8.00256225913165  -17.51055153727235    1.34413181152208
N          -9.34050358006540  -17.90527198282369    1.28931516491482
O          -9.63498913961775  -18.97358702381473    1.80177214863839
O         -10.16693503192222  -17.16524906692656    0.76246916898350
C          -7.00030691848025  -18.29488668612854    1.98551096872278
C          -5.82648114931960  -17.59811566745486    1.99289738214501
C          -6.00500567282962  -16.37042842488576    1.28405304860215
C          -4.98678939927897  -15.52204735456996    0.89108444772615
C          -4.88895867158459  -14.81251336354896   -0.35456899960837
C          -3.61297853355712  -14.37168649824191   -0.50199894148097
C          -2.86976522687066  -14.70682247003850    0.68811695358646
N          -1.52461800494445  -14.33347876511387    0.89417123955050
O          -0.95939240571006  -13.76309325801759   -0.01857870508341
O          -1.00963754259003  -14.61791117680354    1.96094161528450
C          -3.68727454676376  -15.39172588349752    1.56630103007919
C          -3.41023618759228  -15.78457758232855    2.91309359910169
C          -4.31403363889412  -15.75158068425549    3.92047866716518
C          -5.58177607563881  -15.08939610944669    3.80924126704907
C          -6.82116848629922  -15.40581131330263    4.25766880742906
C          -7.94929601087500  -14.58766429636465    3.72217325115982
O          -7.86572641433503  -13.47685537256394    3.24163383896488
C          -9.13463504880826  -15.44776839848146    3.80223835924249
C         -10.37898527573919  -15.23898869323104    3.27810003074918
C         -11.33909963066989  -16.27013476420747    3.35736600668626
C         -10.99540194748814  -17.49582416480893    3.99997176693150
C         -11.94054310247393  -18.53936230599571    4.03605362210307
C         -13.16668187344408  -18.37552809416794    3.45480769877805
C         -13.50606523001133  -17.16119420254294    2.82345077196417
C         -12.61471921858484  -16.12679529423501    2.77987559717719
F         -14.71528493493360  -17.02554278412195    2.26506575452488
F         -14.06414464052431  -19.36562250530778    3.48365466439617
C          -9.70954732745722  -17.67101307584132    4.56187765337089
C          -8.78688309868553  -16.66324068754730    4.45930714332958
C          -7.39445208328110  -16.57951085727217    4.89828704366955
C          -6.82185975728539  -17.40096613099950    5.82753463314219
C          -5.55337243496702  -17.19508347578368    6.40306197659084
N          -4.53925127464391  -17.04791924810259    6.91967142708240
C          -7.47307562243061  -18.51638536476394    6.40046476362828
N          -7.94330633281499  -19.43779122203910    6.89562422457017
H         -17.82974012656802    0.93357907020345   -2.40697136583070
H         -17.96143835022195    0.06303574881880    2.47237245400440
H         -16.00772836236855   -0.66859361318007   -2.66692340181761
H         -16.09445354654091   -1.57423004520535    2.23861727125098
H         -12.51802496480393   -4.91159332735246   -1.69573105926229
H         -13.37327153651661   -7.74770002693571    2.75233085733268
H         -10.84382786269955   -7.88931634354473    1.95272304918395
H         -10.59979652239579   -3.85772207100972   -0.71595933427613
H          -8.00877417970938   -3.77060120577346   -1.24074725340373
H          -7.82969472919619   -8.52200355397935    0.01136956867783
H         -10.88007080289254   -8.80480516726068   -0.29025031784319
H         -13.26660810160551  -13.06564338518998   -0.36256256513995
H         -11.19363099422755  -14.74398228061557    0.00310346654173
H          -6.72416878975634  -13.59960508706195    0.71939808631717
H          -9.20974529589178  -15.36736486313032    0.32972951702756
H          -7.17687522450793  -19.27585170851032    2.38547772192251
H          -4.88411155919275  -17.95366000551290    2.36136848581618
H          -5.66732558483329  -14.77611223614671   -1.09205255912256
H          -3.18511014356416  -13.85726981027138   -1.34120600647389
H          -2.39957452316732  -16.11390919821750    3.11690591259590
H          -4.04057114202963  -16.18779838507567    4.86979089714310
H          -5.56716229578911  -14.17859644363742    3.21330947500826
H         -10.61864759256708  -14.30797860723193    2.78737558712950
H         -11.69069394875855  -19.47813249320223    4.50385893874502
H         -12.88564601489040  -15.20632271920061    2.28712076556386
H          -9.47685940833700  -18.61659487779115    5.02338679753077
