112
 SCF done       -240.676451127917          0.000693800901
C          -6.75415508795917    2.58476828931765   -2.62793779784000
C          -6.38933462015450    3.55608506027054   -1.73873908423255
F          -6.00990242700874    4.76207803529185   -2.17755741688878
C          -6.40831570284707    3.30323646500056   -0.35131344687661
F          -6.04620570767076    4.27450334412589    0.49522418192242
C          -6.79350175861152    2.08219172634173    0.12693426725745
C          -7.17763353789477    1.06071617857777   -0.76376133455760
C          -7.15759371952194    1.31484569339995   -2.16707890338670
C          -7.53870993714765    0.30595822402267   -3.07931690605496
C          -7.92898912526754   -0.91856983842238   -2.60223275679837
C          -7.94430930995987   -1.16467761792426   -1.19785365018480
C          -7.58279599748502   -0.20805772456462   -0.29398453033832
C          -8.39834922151302   -2.54396328737127   -0.95044528411564
O          -8.77759749082250   -3.03884550612920    0.08277078269778
C          -8.41876500372397   -3.18211072029700   -2.30662180965778
C          -8.36377161125506   -2.12266980053284   -3.29932208612216
C          -8.71681757087900   -2.22479192038765   -4.61567332949151
C          -9.28552532892817   -3.37638855803741   -5.19846045503247
N          -9.80288946667716   -4.25822028942356   -5.72072038684801
C          -8.64369427064118   -1.15298197459249   -5.53278867322363
N          -8.60509382852879   -0.31368048315197   -6.31349001106133
C          -8.35745149698433   -4.51494584441703   -2.50135731948979
C          -8.18076807652760   -5.48356583741549   -1.45796792063063
C          -7.25147918761760   -5.53833276510376   -0.44539100180949
N          -6.25701882238956   -4.59431739084471   -0.10398105113822
O          -6.14972802078202   -3.58075025235286   -0.77897469542301
O          -5.53961067616472   -4.85996473965793    0.83751939231235
C          -7.33925728100081   -6.82680497916450    0.22160462186033
C          -8.26302453468004   -7.58316722542627   -0.41049572654153
C          -8.84478904123029   -6.80470263680361   -1.47489457728962
C          -9.87265787497678   -7.12275116508438   -2.32167728480865
C         -10.76767513085821   -6.16510400118593   -2.92407017564641
C         -11.74189785226411   -6.82601559602362   -3.58602027180484
C         -11.48140497032906   -8.24430596050198   -3.49026298247929
N         -12.20802698172371   -9.16854009469872   -4.25909661483570
O         -12.94255377009505   -8.71271103765713   -5.12094816045792
O         -12.05116112301508  -10.36614196951290   -4.07235445731241
C         -10.35128621821869   -8.46261402019941   -2.71561726070768
C          -9.68269710869871   -9.71647380798335   -2.62463008218931
C          -8.35824966970598   -9.93244744593120   -2.46753214565429
C          -7.80181991265760  -11.24853598236199   -2.69677986941501
C          -6.90652846174236  -11.89789741484695   -1.84952362683466
C          -6.43091190858441  -11.35035664573957   -0.61317177368687
O          -6.75664919581752  -10.28035788055416   -0.15115277502439
C          -5.41901406608614  -12.24250050401910    0.16048049383375
F          -4.34343937066821  -12.53617114076843   -0.58884107072919
F          -4.98739970017295  -11.65023827861150    1.26662115460766
F          -5.97360829228331  -13.41343266091135    0.51765374299913
S          -6.50153500173191  -13.48513313087429   -2.43345527137376
C          -7.50299478215852  -13.27275538596354   -3.79106980322618
C          -8.12967092729941  -12.04971189822763   -3.83004147291851
C          -8.96395269161580  -11.57226050920081   -4.91375985922460
C          -9.00441016068464  -10.29127969161111   -5.38294907001998
C         -10.04268013993858  -10.18504616478129   -6.36604077857310
C         -10.58738720888205  -11.54558208147856   -6.52297370054895
C          -9.94499429915819  -12.35758773341020   -5.64044141816041
C         -11.58426840544295  -11.94208016716956   -7.41741994262002
N         -12.36311551686568  -12.29871878001596   -8.18324117464071
C         -10.50051480999523   -9.03053925622812   -6.93901177696220
C         -11.46461033780064   -8.89621823776953   -7.98869841374814
C         -11.55986526958323   -7.57654235785553   -8.34973361474401
C         -10.71009873992139   -6.80312705836788   -7.44797336147957
C         -10.05051572446800   -7.65774348901340   -6.62345740422086
C          -9.17750461723418   -7.27962163400486   -5.60294640259230
N          -8.50193999635235   -6.95369570960057   -4.73027094227708
C         -12.26975875524213   -6.96648177245783   -9.42811585377181
C         -12.64908957436800   -7.50780738411532  -10.61335638603695
C         -12.39238881988984   -8.78429658402596  -11.19614771752004
C         -11.38444109070199   -9.68858853461655  -11.06998978193343
C         -11.63201851893098  -11.08284953517661  -11.55903992490601
O         -12.44549355410959  -11.42378244311654  -12.37922507428338
C         -10.71336063306733  -11.92649115396364  -10.76510473626845
C         -10.70825720225787  -13.28292533910209  -10.61090289308387
C          -9.82184588669831  -13.86203366684608   -9.67421316369884
C          -8.93281166880267  -13.02406297240064   -8.94183092083377
C          -8.09937376835235  -13.59423823338911   -7.95962216040866
C          -8.15589593414856  -14.93535499212595   -7.70829131457992
C          -9.02048940605169  -15.76974756134572   -8.44383912511968
C          -9.83121561190525  -15.24589366305888   -9.41241129219746
F          -9.04660327742390  -17.08082461145453   -8.17532073691419
F          -7.39715316425546  -15.46228695491065   -6.73255305815543
C          -8.93214854598367  -11.62779242599744   -9.15262469882111
C          -9.82649777406293  -11.08616498769470  -10.03541822791594
C         -10.13144949779381   -9.69414863463685  -10.34949426948037
C          -9.32459713739722   -8.62186606469626  -10.07964712948691
C          -9.58949783677816   -7.31640491307637  -10.53845891449686
N          -9.76235816678747   -6.24426056231267  -10.90771926388828
C          -8.14334561375674   -8.70268694805714   -9.31473307529575
N          -7.21062483410843   -8.71593502551547   -8.64596466425992
H          -6.73413412802722    2.79548634442251   -3.68582272887823
H          -6.80146764490533    1.90414887198521    1.19082269848840
H          -7.50322331819843    0.52160909710692   -4.13544668999894
H          -7.59799455745782   -0.41904834026040    0.76415217177104
H          -8.40176157524362   -4.93462961653606   -3.50188761697065
H          -6.74240583595150   -7.09222873188086    1.07296619070680
H          -8.58715018863647   -8.56268396795329   -0.12180349657525
H         -10.71239253688141   -5.10682576493953   -2.76385367159341
H         -12.58112149785641   -6.41305543168842   -4.11240673867893
H         -10.31249433362152  -10.57024488870312   -2.84245452352824
H          -7.66759939059826   -9.13813894117935   -2.22409606047569
H          -7.56409924516133  -14.05411700592158   -4.52449759462779
H          -8.36611951911795   -9.48179767775509   -5.09211834407123
H         -10.14411326761612  -13.39914077366538   -5.47185333641516
H         -12.02178970419709   -9.71483233235334   -8.39966708821408
H         -10.61493647116764   -5.73337449881461   -7.45398769437769
H         -12.52052884821629   -5.92571355034157   -9.26340860909318
H         -13.28287141858133   -6.88445732109049  -11.23372770881354
H         -13.16747397363110   -9.11451739465678  -11.88539838481548
H         -11.39727806119137  -13.90162648503141  -11.16421247668184
H          -7.42502479292179  -12.96890117525929   -7.39489708140429
H         -10.49413503374152  -15.89639490560820   -9.96065104390842
H          -8.25490028536310  -11.01784527803728   -8.57583131237521
