128
 SCF done       -249.989266893650          0.000763663219
C          -7.86908693354829    0.09195993780104   -1.15178988303668
C          -9.04091563904551    0.37016182158156   -0.50560883302787
F          -9.39149218247797    1.63879132541783   -0.26239185911371
C          -9.89395059407457   -0.67134473536623   -0.08767527862922
F         -11.03630334524201   -0.37061884879896    0.54388333630635
C          -9.56275766285838   -1.97655597799698   -0.32120927856864
C          -8.36129714433073   -2.29582650465268   -0.98342280943876
C          -7.49909508378915   -1.24347438258187   -1.40858138423676
C          -6.29111836957238   -1.54010218613855   -2.08008950665286
C          -5.95758589506100   -2.84730945020162   -2.31647915396622
C          -6.81738503539810   -3.89411012270015   -1.87799268199516
C          -7.99136229879305   -3.63668545212080   -1.22955925904109
C          -6.22182947084518   -5.20003050561008   -2.21908586149287
O          -6.66500283870321   -6.29442284473378   -1.93513921289328
C          -4.92971632166639   -4.88320563811870   -2.87406892402129
C          -4.81216264979155   -3.44408066508472   -2.99212834241308
C          -3.85978875233913   -2.78028565001803   -3.71738371274425
C          -2.88697173379996   -3.43195695212629   -4.50601633937623
N          -2.11843250368485   -3.91286890769021   -5.20946582778019
C          -3.78522773488255   -1.37598854327820   -3.82266303286381
N          -3.68124751003350   -0.23812758878041   -3.92862370407601
C          -3.94732740226107   -5.80143153095367   -3.09714589781488
C          -4.14558346762260   -7.20668706303671   -3.10042409269491
C          -3.35144006203794   -8.16492754034978   -2.47229298607315
N          -2.21433659848183   -7.90275643525636   -1.69278207057711
O          -1.92252946014149   -6.73479771209978   -1.48083532896354
O          -1.58367937342796   -8.85667132149681   -1.27291427205711
C          -3.92657333920154   -9.45873371746029   -2.66094147798170
C          -5.07640931572386   -9.31182254258131   -3.37911731099371
C          -5.25518939248834   -7.92607435445633   -3.69967238995911
C          -6.17240825202002   -7.39648950936767   -4.60570248496592
C          -5.94112146100068   -6.32687940298639   -5.49799719636504
C          -6.97435488164899   -6.26458683759353   -6.40786064168560
C          -7.92644015709564   -7.25892677002550   -6.09381049295555
N          -9.07300481039187   -7.49595660839929   -6.84433988606909
O          -9.37714666392503   -6.68996880903815   -7.70855498309927
O          -9.70782585299788   -8.53111390923423   -6.63297672939924
C          -7.50072905530399   -7.94578975207099   -4.92636012845170
C          -8.28775415482098   -8.76544215044430   -4.13221396060204
C          -7.98781199959923   -9.12048668535282   -2.82496891424026
C          -8.65353558976558  -10.01095125939766   -1.99073503385641
C          -8.40551704836645   -9.99858650280552   -0.59692049225453
C          -9.27306994558235  -10.86264197252585    0.04789968624672
O          -9.36148423424943  -11.13494697335422    1.34779317333359
C          -8.44164727206161  -10.49711744042981    2.21637862466104
C         -10.10374336727420  -11.50237237356701   -0.93688835287425
C          -9.73691511161979  -10.96181233200645   -2.22528229653581
C         -10.35414764754766  -11.29971821444736   -3.41972102676565
C          -9.82822873385490  -11.31927448694323   -4.73271761881269
C         -10.82572918237420  -11.73397656285418   -5.59027868497643
O         -10.82542146040268  -11.94893659530378   -6.88330489048952
C          -9.67179714578893  -11.58943901527513   -7.62302972971552
C         -12.05949256714536  -11.93368475402105   -4.81379508517755
C         -11.77562411355334  -11.70486308785344   -3.52670928646406
C         -10.94861791012387  -12.59866560542897   -0.73348177255743
C         -11.32078542711507  -13.11679615194375    0.48585812576398
C         -12.18533790339882  -14.21162148655767    0.63313284402783
C         -12.54658922221892  -14.80468305063532    1.84016988849325
C         -13.40954174257825  -15.89339011433520    1.58926814606180
C         -13.60643876464859  -15.93150554434951    0.12616065157173
C         -12.87025689079372  -14.93776372610366   -0.42943484807806
C         -14.42312252760930  -16.81663583453842   -0.58819647677456
N         -15.09795103273332  -17.51162683639756   -1.20457836310268
C         -13.89576600200094  -16.81569054324720    2.49717926178177
C         -14.59505166823610  -18.02335967149277    2.20861953007160
C         -14.67086188378383  -18.78587415248688    3.35645221187452
C         -14.09697863533969  -18.01586562289441    4.44091749880523
C         -13.63580808144531  -16.83246721684958    3.94061896633113
C         -12.97686466534297  -15.85644469955941    4.69304214948651
N         -12.39770410180972  -15.09550283213633    5.33088481234392
C         -15.07866482161452  -20.15195997907067    3.43684688147528
C         -14.44735696754791  -21.09158392659307    4.18760902069830
C         -13.22109473578534  -20.93683142009523    4.89068658061324
C         -12.15555821910325  -20.11265909759531    4.66598644951840
C         -11.22339572242590  -19.84964724938492    5.80696968769889
O         -11.13763447812854  -20.49013176688146    6.82686116395083
C         -10.50700342287878  -18.61229616668186    5.44148526654160
C          -9.69530424990233  -17.83027492105126    6.21165608417413
C          -9.17723339733698  -16.63409810849628    5.66669539132834
C          -9.49469654594570  -16.28395843343544    4.32296989733682
C          -8.99810201947805  -15.07745756365514    3.79181268574806
C          -8.22360779039828  -14.25823493610862    4.56246563548396
C          -7.90518933855858  -14.60515830138745    5.88966083556193
C          -8.36937128675338  -15.77078044519836    6.43152790925350
F          -7.14116113614546  -13.77783914046364    6.61528149314256
F          -7.75785634503505  -13.10394489402102    4.05673807080818
C         -10.31755199392488  -17.12602903499288    3.54255902761218
C         -10.82864801449955  -18.26703779951127    4.09895054950407
C         -11.75205194122258  -19.26636505856568    3.56517602760525
C         -12.05029594160220  -19.44051908335596    2.23667511462629
C         -12.77464733280964  -20.54513339118922    1.74533636776788
N         -13.33593198368736  -21.44571441851053    1.31013688585715
C         -11.59682520368937  -18.58533950938274    1.21390707325183
N         -11.28534890131554  -17.88655315488507    0.35743451772971
H          -7.22836131986356    0.90071810184585   -1.46671299572493
H         -10.22684749113866   -2.76138984725199    0.00551576812098
H          -5.65473169178636   -0.72521929038071   -2.38577894159831
H          -8.63087183711684   -4.44526867593789   -0.90914581792207
H          -2.92321006824826   -5.46321530144907   -3.21107725881616
H          -3.49677300087999  -10.36587784344420   -2.28174754846036
H          -5.70594318372697  -10.10237040503892   -3.74025057823288
H          -5.04066937117091   -5.74357666647568   -5.53690830082871
H          -7.05598874194581   -5.59720188015516   -7.24554696094498
H          -9.24480845217633   -9.05747775131044   -4.54430759900700
H          -7.18369929033496   -8.57313074885168   -2.34840473298613
H          -7.66853820527685   -9.36727682291393   -0.13725340080555
H          -8.67136321940317  -10.85933239332000    3.21529043084894
H          -8.55793308746518   -9.41128383844933    2.18031056638478
H          -7.41380805717817  -10.76554099180477    1.96262489140047
H          -8.80046167337309  -11.15609316299325   -4.98676177014603
H          -9.90925107382788  -11.78059630960120   -8.66711889891395
H          -8.81105305054114  -12.19166799733819   -7.32176564145305
H          -9.45604615693771  -10.52920673791940   -7.47316696578062
H         -12.99915658274008  -12.19300155633163   -5.26049170919482
H         -12.47251881637912  -11.66588531746481   -2.71219905294923
H         -11.31480825158674  -13.09005791672419   -1.62255490280092
H         -10.94432687191196  -12.66573047485006    1.39215516985160
H         -12.20686521653903  -14.49727875779006    2.81039149667204
H         -12.80770383271011  -14.72135062385728   -1.47912183959259
H         -14.92706686492219  -18.32649494224490    1.23471161960115
H         -14.09050068585918  -18.31396353901902    5.47310974229800
H         -15.92836743867849  -20.44588835208122    2.83540185193040
H         -14.91476557213641  -22.06269315021481    4.28575811792261
H         -13.11206719852313  -21.55464400318683    5.77931367567432
H          -9.46697143183634  -18.11014432204743    7.22872324579171
H          -9.23211813506380  -14.79680408565016    2.77640662066263
H          -8.12094918411572  -16.02151272348681    7.45076431406715
H         -10.55003784505930  -16.82831476386465    2.53240994514851
