119
 SCF done       -257.435529079305          0.000944532151
C          -5.19767361983871   -2.79868966372219  -10.85286345844592
C          -4.15173069145323   -3.51604346306477  -11.36198622675504
F          -3.33155350534681   -2.96353312562886  -12.26278756500436
C          -3.92322737080536   -4.84443704334093  -10.94709975072585
F          -2.89210480809113   -5.52343794461078  -11.46373096186432
C          -4.74396438298520   -5.43635516601427  -10.02840663703346
C          -5.83149725470861   -4.72387397749385   -9.48608356347971
C          -6.06334500543047   -3.38065226340803   -9.90468906340345
C          -7.14986577386901   -2.64796294160690   -9.37668395670320
C          -7.98019057344724   -3.24118466797542   -8.46170255650421
C          -7.74617763519064   -4.58659504629666   -8.05278737856695
C          -6.70048713122126   -5.31605024597733   -8.54328313243625
C          -8.79546340007647   -5.00351724185963   -7.10565329030036
O          -8.91938687539252   -6.06868485821713   -6.54576958607656
C          -9.72494990853771   -3.84453219264862   -7.02016901707233
C          -9.15662133154539   -2.73468818819635   -7.76701571491783
C          -9.60253740079718   -1.44390000533624   -7.74514515504190
C         -10.67371972432048   -1.01074574092898   -6.93311156812724
N         -11.50656299832448   -0.61840886613962   -6.24870084565640
C          -9.01234585768634   -0.38973010060894   -8.47499767845122
N          -8.56745568497064    0.49644733233462   -9.05148519484392
C         -10.96073061698379   -3.95873754471773   -6.48788242852284
C         -11.42243058349426   -5.13640876067053   -5.80057618268369
C         -12.40799518511346   -5.97066651674242   -6.26895335944993
N         -13.07218534998843   -5.78523636019637   -7.49325652596987
O         -13.97121701021087   -6.54903973732253   -7.78193435981320
O         -12.69547626800966   -4.85482596338914   -8.19371767346517
C         -12.58635026651118   -7.08097159858639   -5.36175826703256
C         -11.68521183082359   -6.95146645901274   -4.36168308588548
C         -10.91318434819426   -5.74785776287333   -4.56693684390100
C          -9.96998068074249   -5.17431004589306   -3.74686676073246
C          -9.63374606296864   -3.78364773265976   -3.71829768479335
C          -8.81482614900312   -3.55833320026574   -2.65885593559724
C          -8.55280518436430   -4.80005191071937   -1.98545333754712
N          -7.67499338740057   -4.80420803392261   -0.88444600212965
O          -6.94874101438436   -3.83473658504632   -0.75909839489135
O          -7.68539865840174   -5.74261977237845   -0.10144668252944
C          -9.22110994776161   -5.83468573744071   -2.65145482560155
C          -9.12816124142662   -7.23978598924249   -2.58787840014081
C          -8.61093882427801   -7.99092497083778   -1.56479227247943
C          -8.53147516990754   -9.39456199354376   -1.61447703935804
N          -7.98207670344561  -10.15019113106329   -0.60879137144925
C          -7.44619618830520   -9.66211816495475    0.64259398704380
C          -8.55009826865541   -9.35889829362259    1.65118968491344
C          -8.01816294485980  -11.52263886636123   -0.89482937247795
O          -7.60443083365910  -12.38522261859116   -0.15237747523494
C          -8.64154180018075  -11.59732213754216   -2.20602695900808
C          -8.95184675192282  -10.28827791711192   -2.61706492809557
C          -9.60443100320144  -10.37126391047311   -3.90926108911138
O         -10.06735267146750   -9.52526989820529   -4.64423579240469
N          -9.62525460385577  -11.74906723945373   -4.20046131316575
C         -10.22706068926918  -12.24524503748324   -5.41539387760947
C         -11.62699831630514  -12.80173584198470   -5.16913847792260
C          -9.05521425799957  -12.49314779322832   -3.19987003486353
C          -8.91571264202145  -13.89979254331561   -3.24008828072997
C          -8.29064249028729  -14.60795193817158   -2.26297310379273
C          -8.14598588470891  -16.01884275755424   -2.31421084328183
S          -8.96963359574015  -16.96433235475669   -3.51598015649073
C          -8.30338955064885  -18.44320630143759   -2.92366553447914
C          -7.51783728557173  -18.21565370279255   -1.80611462547086
C          -7.40666450467948  -16.84589330670451   -1.47868821002936
C          -6.52861922167609  -16.30623653876605   -0.38256379451224
F          -7.21421609537209  -16.06638182318672    0.74433807838019
F          -5.53149344238738  -17.13888203976238   -0.06774476068481
F          -5.94038674712451  -15.15625299568394   -0.73319941453440
C          -6.97506722019085  -19.31795993547294   -0.94110667259511
F          -7.61063468601858  -20.48692618268972   -1.14856970423842
F          -5.67402287272425  -19.57485404665344   -1.14856155120076
F          -7.13005147560409  -19.05515766648625    0.35805267158488
C          -8.62072198554436  -19.65905343968764   -3.61715162410762
C          -7.80111283724031  -20.67876821947483   -3.94356390734841
C          -8.40027061980714  -21.98975615415111   -4.36553725174771
O          -9.53514741591598  -22.16882754092423   -4.72815339406074
C          -7.32013480376623  -22.97284875330956   -4.18183260954195
C          -7.37518566668650  -24.33447640968912   -4.28263106389453
C          -6.20849455273671  -25.08903136345387   -4.03003039200961
C          -5.00403880301565  -24.41798760442743   -3.66382136347687
C          -3.84692321752199  -25.17947948701707   -3.40250926726507
C          -3.88155904252114  -26.54192087182462   -3.50542233276886
C          -5.07219271675508  -27.20437180517855   -3.87112660455367
C          -6.21175170510829  -26.49452046417104   -4.12745030191018
F          -5.07594965097208  -28.53866071061127   -3.96474404150231
F          -2.78304420528968  -27.26359628608106   -3.26073233403220
C          -4.97408219643711  -23.00844668558159   -3.57191225430966
C          -6.11327288069656  -22.29604843311176   -3.83877858397483
C          -6.36011167607705  -20.86000388137329   -3.85262750672324
C          -5.40933882386098  -19.88902186038665   -3.99183961498908
C          -5.71035014425442  -18.52946930935247   -4.20913791066560
N          -5.92662828314462  -17.42301404233413   -4.42359343296954
C          -4.02155797890597  -20.15318711498555   -4.02604849892138
N          -2.88926536401891  -20.32355034715722   -4.07717051545843
H          -5.35799115673076   -1.78341136599806  -11.18048325754653
H          -4.55573426090933   -6.45346584749296   -9.72229679698186
H          -7.30724773703835   -1.63681644491012   -9.71658445957285
H          -6.54271116232472   -6.33378340396590   -8.22016625213549
H         -11.69720177848130   -3.17766004730938   -6.64145055508390
H         -13.31824100701148   -7.85232589914103   -5.50289480295877
H         -11.61031569664558   -7.58184074890762   -3.49907283098475
H         -10.05462260962635   -3.03709366295659   -4.36362249859710
H          -8.41245190638817   -2.61820457039856   -2.33056247105495
H          -9.49536977381843   -7.75984752069782   -3.46277936119184
H          -8.25322493154945   -7.50423506087929   -0.67089662273275
H          -6.83968146544842   -8.77275408498395    0.45847822894720
H          -6.80483236674448  -10.45907608869188    1.02803670823120
H          -9.20769341146023   -8.57397570543732    1.28587524214139
H          -8.10487588075438   -9.02864841748976    2.58478670229297
H          -9.13929560054750  -10.25243187040385    1.84334835673448
H          -9.57776447812626  -13.00339631894667   -5.86091264753670
H         -10.28764064035219  -11.38951583160945   -6.09344068480243
H         -11.60315482843029  -13.62859593074021   -4.46285425072031
H         -12.04982675509084  -13.15385384264298   -6.10555277395989
H         -12.27182274010699  -12.02299217680374   -4.76977867074429
H          -9.30721656797963  -14.42231477661314   -4.10286692161782
H          -7.87956059811844  -14.08923201758073   -1.40661825204751
H          -9.65808440565657  -19.77543313352372   -3.91685495666902
H          -8.29705115643559  -24.82830666764541   -4.54936818171642
H          -2.92751751127261  -24.68830734947023   -3.12468779494541
H          -7.11405748427512  -27.01661304395389   -4.40477669070324
H          -4.05647605695868  -22.52372231575821   -3.27889740980859
