106
 SCF done       -194.380327807905          0.000994489706
C          -6.88286248722452    1.83681175997439    5.86150194350107
C          -5.94043373242210    2.21544793268597    6.77504661878572
F          -6.09841444211674    3.34682537310726    7.47722564647086
C          -4.79340685982774    1.42594448976676    6.99174739417389
F          -3.88517980934183    1.82337032426329    7.89476679045775
C          -4.60437057723723    0.26863637421930    6.29039424644839
C          -5.55701938238363   -0.14892084984293    5.34056028862156
C          -6.71835824956792    0.64792959595991    5.12145853673663
C          -7.69026058849815    0.24667773276624    4.17793031076679
C          -7.50744479863833   -0.91791007427448    3.47836204460224
C          -6.34374575411469   -1.70657973347904    3.70352267771467
C          -5.38533241714210   -1.34087947864189    4.60236654573040
C          -6.38871917761706   -2.89657527300790    2.83194082020558
O          -5.47877202900390   -3.63731675602164    2.54339665022817
C          -7.76103807270736   -2.88347580204784    2.23700950879033
C          -8.34570488938974   -1.58005917913406    2.48374034870097
C          -9.46454477826867   -1.05902116475047    1.89094479058884
C         -10.20049963673214   -1.71576610645830    0.88260219960280
N         -10.82239275829419   -2.20182589332133    0.04871424817722
C          -9.98870261217414    0.21877997945847    2.17618570652422
N         -10.45700709555650    1.24923738180385    2.36732858221467
C          -8.33489087969630   -3.97045481680116    1.66969848535910
C          -7.77695651469287   -5.28572700280735    1.71472740224166
C          -7.21523885419253   -5.96258422412118    2.79602592554293
N          -7.06040103508144   -5.54204777541838    4.12216962263352
O          -7.40526234379588   -4.40867068781980    4.44418844979847
O          -6.60961254218366   -6.34891118889403    4.91786013915145
C          -6.91258778223896   -7.30840619435926    2.39725303452332
C          -7.31151531871990   -7.48114909556304    1.11021742206580
C          -7.87418878407080   -6.25109063326044    0.63011132344032
C          -8.31377524276468   -5.96194862815243   -0.65596359532948
C          -8.31641598593546   -4.69165391200198   -1.27330203284465
C          -8.59987822473464   -4.85042100978862   -2.60474684306514
C          -8.83864008687842   -6.22410575898931   -2.88929173464107
N          -9.05346590582465   -6.63020825682696   -4.19765334586620
O          -9.00232900450345   -7.82945558571028   -4.49198923991537
O          -9.24961210566506   -5.76870309040176   -5.04420155631916
C          -8.74914533678501   -6.95159583784881   -1.67308869543926
C          -9.18016166726204   -8.21258122150584   -1.27655857672003
C          -9.65839001180493   -9.23425880824276   -2.08040270790596
C         -10.02703888732400  -10.49065171381111   -1.60454904115260
C         -10.30118898555861  -10.85352767313288   -0.27817712591333
C         -10.73039757934807  -12.18350892346963   -0.22039916093213
O         -11.03958083780110  -12.70393810979914    0.97382435544085
C         -11.65376355926151  -13.96607285835004    1.09975019312077
C         -10.69102229895350  -12.73531239194565   -1.53249877411700
C         -10.33199971934607  -11.66201645582197   -2.42774446801099
C         -10.39252233196726  -11.70535814232366   -3.80783217340658
C          -9.74016259468852  -10.88597425153238   -4.75864044048540
C         -10.21670364093249  -11.21460120021971   -6.00767840099065
O          -9.92554280116058  -10.71918740523335   -7.19099869718470
C          -9.00439023950696   -9.64080492142792   -7.25082333803191
C         -11.22417444312800  -12.27578195263231   -5.86683206543850
C         -11.30900909964521  -12.59265000705954   -4.56953552439433
C         -10.70355777440741  -14.10720733399088   -1.90157788198015
C         -10.02201773578480  -14.60606626480556   -2.96654502788625
C          -9.96577402469692  -15.98114489859528   -3.36286806771588
C         -10.72129658651687  -17.01421717218937   -2.77881143562830
N         -10.61836801354181  -18.27602696716944   -3.10570381103895
C          -9.75539251044277  -18.65011630712164   -4.06159022083912
C          -8.98824918273271  -17.69378553367268   -4.74776601154945
C          -9.09502295765245  -16.37089539777518   -4.39573899218670
C          -9.68922838992813  -20.07237139414971   -4.29129871757699
C          -8.85360506919248  -20.69645275282620   -5.14128201301676
C          -8.75012221094049  -22.12090699675376   -5.34403387548047
C          -9.51971000220234  -23.07418272721077   -4.65779522698439
N          -9.41312519466190  -24.36874455170702   -4.82782254673025
C          -8.52509608955858  -24.84551707745331   -5.70494390527411
C          -7.70871169147106  -23.98600298364821   -6.45006873789836
C          -7.82334317772503  -22.62613183193016   -6.26628055758558
C          -8.42761911435245  -26.28820740309174   -5.86237937612758
C          -9.16604814146977  -27.14915411760660   -5.17038751157438
H          -7.75528599894847    2.45261399966359    5.70828668922563
H          -3.72195880066421   -0.32563092915394    6.46850493919147
H          -8.56261325370687    0.86534305213705    4.03949708887201
H          -4.51452639000919   -1.95897363922647    4.75760071324914
H          -9.29311522687032   -3.88250009566784    1.17214232006134
H          -6.44350020358377   -8.02485807179547    3.04383157047934
H          -7.13392703403638   -8.35288510871763    0.51045108270341
H          -8.02375835737628   -3.77363493369361   -0.80296834160681
H          -8.62092140280077   -4.08218712133780   -3.35530600076418
H          -9.12814651369001   -8.40378238096491   -0.21466186021403
H          -9.70898089077324   -9.06324107322439   -3.14161891377102
H         -10.24231395903281  -10.21785860086529    0.58422258942724
H         -11.96622364276214  -14.03252044378311    2.14152704115258
H         -10.94858743281409  -14.77587055656122    0.88957302731084
H         -12.53295603268385  -14.05089226881611    0.45567483306891
H          -8.95377955593543  -10.18925039825693   -4.55766827187211
H          -9.07676210094832   -9.23416795720788   -8.25704536153349
H          -7.98820712656767  -10.00038437044643   -7.07066929672309
H          -9.24309617273981   -8.87321911681040   -6.51108571405267
H         -11.77975589334438  -12.67599650265468   -6.69228606282270
H         -11.99429587472817  -13.27963174907840   -4.11406994699126
H         -11.21356575049149  -14.80366268078266   -1.25497490121057
H          -9.40383016788501  -13.93484808140572   -3.54830546644792
H         -11.44594347540481  -16.80527232336417   -2.00204433779156
H          -8.32078796214850  -17.99071038409311   -5.54062435361964
H          -8.50776832141636  -15.61874024694401   -4.90449310663225
H         -10.37885983031920  -20.63644456811015   -3.68051928878042
H          -8.16729499493004  -20.11104277819296   -5.74124598041610
H         -10.25952204578741  -22.76983482309620   -3.92973475169592
H          -6.99864430681667  -24.39058901004302   -7.15577761109796
H          -7.20024496333350  -21.94389882013215   -6.82907298737445
H          -7.70262718255624  -26.63179764545237   -6.58867722184027
H          -9.88266899030839  -26.79303058002380   -4.45060848878916
H          -9.07582748368437  -28.21343897823396   -5.30226442578190
