110
 SCF done       -222.098683557434          0.000967235129
C           3.65676454507343    2.51794883262120    3.71773353585872
C           4.97850808530771    2.74435379285377    3.98098732017659
F           5.43635611690709    3.99698344925708    4.09965220005520
C           5.87550010649740    1.66710780844287    4.13133600164614
F           7.16521975814949    1.91960124820487    4.38933778210703
C           5.43775071376881    0.37758920723885    4.01577587051385
C           4.08135203877884    0.11179581147287    3.74499720942626
C           3.17281088577013    1.19973672758889    3.59433597378390
C           1.80585647977875    0.95732125081409    3.32857146259547
C           1.35955511025867   -0.33422419355421    3.22125292187041
C           2.27535090707692   -1.41217612910462    3.36549728361106
C           3.60167134329479   -1.21032405830459    3.61832771594407
C           1.56620712582824   -2.69355339723525    3.18682356447886
O           2.07321642734963   -3.79267567388923    3.16932759427447
C           0.14324550823707   -2.33330853619230    2.94144432026433
C           0.02923903665943   -0.88537061547886    2.98131328902500
C          -1.12717421840660   -0.15389588775916    2.90131750189288
C          -1.17431414059582    1.25521014227625    2.96762595323592
N          -1.27923520408059    2.39718553437546    3.00939246616976
C          -2.42969356260916   -0.68465488789753    2.77999256156537
N          -3.52186465413451   -1.03185205762495    2.70985744230678
C          -0.85773201245574   -3.19396498040582    2.58703557840178
C          -0.90106731684697   -4.60584142203212    2.68374521247885
C          -1.81448933825853   -5.39001557181838    2.00291924585100
C          -1.64486238214882   -6.75070909613205    2.38861503759719
C          -0.54590649408960   -6.76284091498318    3.36654785141681
C          -0.11107968984659   -5.48748622402108    3.53729223663184
C           0.03839962170423   -7.88713205610449    3.96726948582354
N           0.57895703064816   -8.77969880709930    4.44565567660782
C          -2.38616206894615   -7.83986255416562    1.98204857127161
C          -2.35063576465531   -9.14729657498747    2.52786522908582
C          -3.24150227371150   -9.95610674178512    1.84110287448833
C          -3.86792135147230   -9.14215998472992    0.80654475557909
C          -3.38545641446103   -7.87555794060997    0.89859364065659
C          -3.75034770704706   -6.81469162797080    0.06143658571137
N          -4.06542508670252   -5.96601602612090   -0.64495779772049
C          -3.46164282583111  -11.31602850731648    2.16646897073179
N          -4.09733553270455  -12.26683296424430    1.40610916078767
C          -4.66394242491174  -12.11253609915835    0.09328595689568
C          -4.08720250371309  -13.53110651610648    2.02652888466574
O          -4.57063391740560  -14.52647258897871    1.52660423893952
C          -3.40818099425939  -13.30887895245549    3.28314344323528
C          -3.03619103839001  -11.95121651167113    3.34202609649411
C          -2.40272630145805  -11.71520155857115    4.62836945318870
O          -1.96942033586237  -10.71801252626721    5.15734293747013
N          -2.40082769449961  -12.98351499147638    5.24473552145618
C          -1.82262273610192  -13.18500438979406    6.54605445770906
C          -2.99274378854224  -13.93811558570760    4.46521324178222
C          -3.09764419795542  -15.29055978100342    4.86131734463621
C          -3.69482370726202  -16.24064772063376    4.09256571688577
C          -3.78340674133486  -17.60867593422874    4.44838933677587
S          -4.62489887147713  -18.68339954182832    3.35716250492120
C          -4.35517209996831  -20.08384904898194    4.36404303657938
C          -3.60152777090001  -19.71822689335837    5.46945159746228
C          -3.30131130374525  -18.33247689965702    5.53403736965536
C          -2.51736162019181  -18.04523235850683    6.74039813668007
O          -2.05881586576216  -16.98978053384731    7.11009274441198
C          -2.37260628947193  -19.36459770934047    7.47370954934308
C          -2.88261818623881  -20.43450415870247    6.53079197846568
O          -2.67386387779919  -21.62147031915136    6.62375020288670
C          -4.91369189559417  -21.33999352412935    3.98584060560572
C          -5.27063496866503  -22.32453871925888    4.84833153941655
C          -5.27446727520033  -22.11395652274484    6.25415296281363
C          -4.99318759698836  -22.93648628453942    7.29694928907692
C          -4.60295168924130  -22.25820594887428    8.57004157520800
O          -4.80332913051009  -21.09806092610589    8.85409674643228
C          -3.83091789336492  -23.25569170060771    9.32475599563989
C          -3.14360251560215  -23.09913456394710   10.49435724295660
C          -2.41024547450140  -24.18986934257111   11.01092693852543
C          -2.39421806706067  -25.42202133193227   10.29449191658659
C          -1.64975175582834  -26.50317610161251   10.80796443545465
C          -0.95710921254404  -26.36863415754683   11.97843015889433
C          -0.97581818004989  -25.15012287751997   12.68730186054557
C          -1.68677124934322  -24.08277348386790   12.21484630897955
F          -0.28743426774255  -25.04660379722971   13.83130664728589
F          -0.25115385141227  -27.39657522890432   12.46508991253628
C          -3.11658066403923  -25.55393789642540    9.08669590280978
C          -3.83389254981720  -24.48805781155496    8.61178469276777
C          -4.66703669887533  -24.34314971225247    7.42028872555938
C          -5.16856512524463  -25.38056550484230    6.68335471612896
C          -6.13504022365888  -25.23750699173394    5.66849937997552
N          -6.94218269093463  -25.17014626815661    4.85509333954028
C          -4.84569254720806  -26.73657011551203    6.90826443759664
N          -4.61622042814760  -27.85320854850379    7.03792425654731
H           2.98386588390216    3.35392909672164    3.60704896689304
H           6.13623644414726   -0.43609243651486    4.13312574339537
H           1.14693936803673    1.80264586152225    3.21485182682392
H           4.27323813534408   -2.04890589028950    3.72295606253929
H          -1.75611948157061   -2.76110662415246    2.16157832955784
H          -2.54810784921755   -5.03551372033196    1.30433651558582
H           0.67593760044287   -5.17491450508130    4.19375581875075
H          -1.74556196117338   -9.44489260201658    3.36102038516304
H          -4.61278385513665   -9.46759732412300    0.10707761491916
H          -3.94964273066143  -11.64871219972805   -0.58789889515536
H          -5.58419408462589  -11.52585254972853    0.12684741473896
H          -4.90500390634696  -13.11504647478016   -0.26322634855300
H          -1.40019629069636  -12.22972266657874    6.85617451405970
H          -1.03337003605935  -13.93625066644085    6.51075229767583
H          -2.57983277206707  -13.49663749063029    7.26685490784303
H          -2.66634400959921  -15.56289609810898    5.81344442335609
H          -4.13444551921346  -15.96535675709478    3.14173061577044
H          -3.01400936197444  -19.36048569589772    8.36163517862070
H          -1.35272070814029  -19.54561488080558    7.81476066379679
H          -5.04956717409623  -21.49492446827810    2.92401172326125
H          -5.57163529577444  -23.27782622250763    4.44296564526118
H          -5.39519072787583  -21.07563260552449    6.55811316912699
H          -3.15724992017399  -22.15557706664302   11.01849318889451
H          -1.62672604714460  -27.44352883750990   10.27972809863207
H          -1.69010602883726  -23.15728829606059   12.76913044805989
H          -3.07258423835887  -26.49352727485086    8.55971607061709
