121
 SCF done       -251.584315490574          0.000578436486
C         -12.87969142651645   -3.65188087475151   -4.12574508827163
C         -12.57171747815024   -3.99454289941254   -5.41339389640953
F         -12.99701196111070   -3.23787719382050   -6.42886749286244
C         -11.80960789412774   -5.14874602398173   -5.68742860415035
F         -11.52375432335580   -5.46898314804008   -6.95690991517744
C         -11.37651282904961   -5.94975726985202   -4.66992078433332
C         -11.71980613834105   -5.64833263151082   -3.33837187853704
C         -12.46845682769008   -4.46957218237687   -3.05399227539864
C         -12.81246505166837   -4.14654733763379   -1.72014496905419
C         -12.47482400074137   -5.01177347596442   -0.71190798535599
C         -11.80605872183260   -6.23024492987630   -1.02334252960087
C         -11.39861335225856   -6.53602765596163   -2.29121370611709
C         -11.76917263731069   -7.08030086777864    0.17076738524078
O         -11.44640513650952   -8.25168047829556    0.21353026313515
C         -12.35883277795608   -6.27503541299639    1.26531381032205
C         -12.72407979422792   -4.97350790757531    0.72635716467488
C         -13.15503972770782   -3.89724809299567    1.44569427131730
C         -13.23784809589759   -3.89125609420375    2.85607156220435
N         -13.26452601012785   -3.83552252916117    4.00114341932041
C         -13.49177304744850   -2.65356373048694    0.86745460836498
N         -13.76586599293222   -1.62812941128924    0.43385979186893
C         -12.68020291772954   -6.82101080319843    2.46417381728939
C         -12.29468204376633   -8.15731102101593    2.81264669431875
C         -13.14849511436823   -9.19949947318975    3.10011190582551
N         -14.55281506416137   -9.09596796299403    3.19896320912889
O         -15.16907296989103  -10.09590020526455    3.50836632216572
O         -15.05145933405936   -8.00614490896688    2.97793410462518
C         -12.40385339239569  -10.43085441796692    3.19191841989228
C         -11.10304722140349  -10.16059403806436    2.92641135207001
C         -10.95156544878271   -8.73896836020380    2.72663267971684
C          -9.76872160959356   -8.03196285822886    2.73553736823255
C          -9.57966274574880   -6.71922477004318    3.26368369487402
C          -8.24181023859686   -6.51266404745438    3.44797693421671
C          -7.52242589829641   -7.64649907870086    2.95965645338933
N          -6.11638474396683   -7.70562613684050    2.92203713874589
O          -5.59049249817732   -8.68402084092720    2.41524775039876
O          -5.50594454873513   -6.76902000835319    3.40229065240035
C          -8.42924000243256   -8.58439193928350    2.45459967181016
C          -8.14753855785253   -9.69415488720453    1.64221720460770
C          -9.03396748068785  -10.13378959138405    0.68650636391271
C          -8.82954799269522  -11.12812706409853   -0.27429449257391
S          -9.75569243705568  -11.02916216452830   -1.72814286116685
C          -8.96830186110137  -12.39757546803536   -2.45490072695005
C          -7.99770627627406  -12.94710903174508   -1.56277471234152
C          -7.93942881244163  -12.23707839421195   -0.32506118186715
C          -7.11114118834986  -12.68438866266729    0.70392528849897
C          -6.28330129041444  -13.77413835938859    0.49236153169754
C          -5.42937195982543  -14.25312681627035    1.59551803701945
O          -5.46233411413077  -13.82204117838354    2.71689984840222
C          -6.27055823607876  -14.41263288548306   -0.75816934701995
C          -7.11651138399039  -14.02048849567060   -1.76781590077733
C          -9.38033522689167  -12.71596483969541   -3.75159926521988
C          -9.03041503219247  -13.82726106288204   -4.48531748181606
C          -9.31175416976021  -14.06454418471263   -5.83461717381573
C          -8.48050998984369  -14.84879466451496   -6.65345311290557
N          -7.40707672841819  -15.67681378080844   -6.28516522531770
O          -6.80751063507564  -16.24011322451199   -7.18241828722602
O          -7.12928572253858  -15.80614154908497   -5.09880350428966
C          -8.78556995233382  -14.57546182862439   -8.01827310018241
C          -9.82634796596030  -13.69457953867502   -8.07884943106037
C         -10.30102660371734  -13.43542033465016   -6.75630274883833
C         -11.53865789087933  -12.94171675739870   -6.38854866015808
C         -12.08672317910055  -12.96632982337075   -5.05181056072191
C         -13.24859237516499  -12.27879163315848   -5.03560273606496
C         -13.51591411426002  -11.79971491420705   -6.37035191167468
N         -14.70021253216879  -11.10095610103881   -6.65496939455457
O         -14.99455738531634  -10.87436646848255   -7.81780734171065
O         -15.36935148978330  -10.73169243762697   -5.70057626640943
C         -12.52293078193017  -12.23952618185490   -7.23418385996981
C         -12.43860795920186  -12.15049804336162   -8.66371296854865
C         -12.68176947761250  -11.14400471800248   -9.53758278540562
C         -13.06000164431370   -9.78526762399355   -9.33427712565405
C         -12.99771497974450   -8.97972815655814   -8.24475076576411
C         -13.88219588487028   -7.76859591321585   -8.18320377607092
O         -14.37513857550252   -7.18969742878001   -9.11345742671171
C         -14.05312011028107   -7.50511766894516   -6.73568558206695
C         -14.88440536815261   -6.62741241663442   -6.10297529748484
C         -14.92613188649401   -6.62186131957265   -4.68896491003642
C         -14.16347879391884   -7.57940824646089   -3.95997107573620
C         -14.25280163509085   -7.60658380051085   -2.55458046759550
C         -15.00967875076464   -6.67814500471684   -1.89892273348465
C         -15.73270244179118   -5.70466078663302   -2.61575081065296
C         -15.70875574639566   -5.68814285697902   -3.98265913925784
F         -16.43344426274143   -4.78557796627703   -1.94166445445045
F         -15.04028284647775   -6.66520577967797   -0.55791426431037
C         -13.29235383724731   -8.45788273261704   -4.63878133114048
C         -13.20865216431226   -8.38609963611005   -6.00208084922778
C         -12.38340173211140   -9.12423328404453   -6.94837238948668
C         -11.14639899820308   -9.64697503424370   -6.67758271413365
C         -10.32162504496571  -10.22247710830823   -7.66349189502059
N          -9.62674534675511  -10.70164681360162   -8.44005362611404
C         -10.57578014861136   -9.59414650089088   -5.39673258558102
N         -10.09153104415807   -9.56743739514718   -4.35437487456756
H         -13.45017027021407   -2.75619836737820   -3.93545808673544
H         -10.78181448304757   -6.82353239365715   -4.88425804471436
H         -13.36155780202922   -3.23787652986412   -1.53072006088231
H         -10.87066954687206   -7.45453227904400   -2.50085520418077
H         -13.33860859271650   -6.30083487254690    3.14936740676500
H         -12.85138882660671  -11.37760566055548    3.42653859567766
H         -10.28383692543552  -10.85110412139433    2.97265563399160
H         -10.37315643925791   -6.06802662095495    3.57846120740065
H          -7.76852581078030   -5.65155571572587    3.88135134664579
H          -7.13426047029365  -10.07151797775984    1.67078777909059
H          -9.94214442300112   -9.56129369535518    0.55045018438855
H          -7.10565689727149  -12.21300989474986    1.67360293161146
H          -4.74311171216486  -15.07145630298580    1.30805930919827
H          -5.59651311369129  -15.23985044884497   -0.92158368693846
H          -7.07417625688808  -14.54618514873213   -2.70586164645789
H         -10.01415890687489  -11.97037890572212   -4.21236365306010
H          -8.37062382284265  -14.55365889803606   -4.03877201435211
H          -8.24695418163448  -15.00123626694125   -8.84410112089782
H         -10.22976334980774  -13.29193029350675   -8.98287964810226
H         -11.65980360600829  -13.50433190388369   -4.22988760971288
H         -13.91645467946215  -12.11965741517609   -4.21110558987576
H         -12.16832544497554  -13.09854221929368   -9.11335654534581
H         -12.63509537413955  -11.41770623514748  -10.58422999803092
H         -13.56140969806498   -9.33015974293267  -10.18319520754645
H         -15.50456097297038   -5.95020246097180   -6.66990097022153
H         -13.71061792951151   -8.34996729503856   -1.99147339951250
H         -16.28606246846376   -4.95001873531479   -4.51684719701076
H         -12.72362693312449   -9.17545001865861   -4.06813117094813
