111
 SCF done       -224.272186110908          0.000571574933
C          -9.65894922166284    1.51761466609479    4.18513074071887
C         -11.02388707689644    1.58393142167848    4.20335018919738
F         -11.63901234052821    2.76962898923172    4.28607592848597
C         -11.80088542773991    0.40924466389016    4.13500017174090
F         -13.13598284733947    0.50535331795163    4.15312773925946
C         -11.20132970283023   -0.81606045134972    4.05030296639066
C          -9.79662081231747   -0.91726911421755    4.02899539010576
C          -9.00968191639394    0.26948647430426    4.09776214282456
C          -7.59858513744578    0.19234264386055    4.07625013299672
C          -6.99248948617366   -1.03402807614747    3.99044463893391
C          -7.78662168304334   -2.21320440026293    3.91903643629023
C          -9.15139293794670   -2.16996041574946    3.93590212640462
C          -6.91054274212109   -3.39313588177401    3.80422387049978
O          -7.25561567111976   -4.54441455830502    3.65693667448243
C          -5.52108408482625   -2.85785813410060    3.79951668488433
C          -5.58446332963953   -1.41501439165655    3.95034083852137
C          -4.51835855423039   -0.57026638432127    4.10409888979212
C          -3.16860333460011   -0.98234826273074    4.14566726886832
N          -2.05516285206230   -1.25268969972384    4.20997810159005
C          -4.63534630830672    0.82612675756402    4.27285109701401
N          -4.67219087225284    1.96493935944702    4.40805334705814
C          -4.43043740642728   -3.61442191563634    3.49923010185900
C          -4.40829976694196   -5.03767488253036    3.46278357119329
C          -3.69493449275227   -5.80353430982601    2.57126401041808
C          -3.96668087321747   -7.18553100544806    2.82169132409765
C          -4.86087442455285   -7.21990197461784    3.98849223241108
C          -5.12872545766959   -5.93958823911503    4.35656330982072
C          -5.41363180118693   -8.35447723701421    4.59846882139335
N          -5.91288296618541   -9.25247913100273    5.11036428493546
C          -3.52635736990947   -8.26721782767308    2.09416849832670
C          -3.75489016578055   -9.64292081408823    2.37121812135721
C          -3.26967107297325  -10.40552655869973    1.32581014606365
C          -2.67516871976808   -9.49882157180294    0.35364993512994
C          -2.79438858797894   -8.22623803990938    0.81546077352571
C          -2.32288603329495   -7.09029917645028    0.14756129556826
N          -1.92751315091354   -6.18068752797512   -0.43162397753646
C          -3.37967923750903  -11.82049019245645    1.28496540694208
N          -3.37777644551383  -12.62628657655850    0.17708525615827
C          -3.24840401708234  -12.24189450883840   -1.20909039742316
C          -1.79790315035840  -12.32361013379871   -1.67904672217213
C          -3.59171465659815  -13.98003182377574    0.51062313590642
O          -3.64944373690062  -14.86820287923985   -0.31090215859143
C          -3.71018851570921  -13.97933710415078    1.95412951013030
C          -3.57590938871052  -12.64816606715833    2.39741538208681
C          -3.59617171833573  -12.65400029412082    3.84880534653540
O          -3.47545255851431  -11.77533375365999    4.66958033534843
N          -3.76134782919340  -14.01821192560334    4.18291188261863
C          -3.93019088270673  -14.42586403301212    5.55764435823741
C          -5.39483352178833  -14.68168478610040    5.90044251696392
C          -3.84915019580378  -14.81107002374958    3.07134893255523
C          -4.05186373347594  -16.21358307573983    3.10277001246879
C          -4.35099247598261  -16.93016596453195    1.98739123191580
C          -4.62196847560591  -18.31995851564850    1.99441109264981
O          -4.36700781663689  -19.09572732403771    3.08180076484645
C          -5.19801869777211  -19.11988319258079    1.01843442236121
C          -5.77683895388985  -19.12312703017793   -0.33583521251270
O          -5.92188301029661  -18.24660098461806   -1.13973384915163
N          -6.16561882760929  -20.45305366967752   -0.51598707585808
C          -5.92250006386711  -21.30316709194844    0.55591810424738
O          -6.17908388304104  -22.47450560779284    0.59635069270291
C          -5.29745203866418  -20.41739099450636    1.55599791633951
C          -4.78095092856958  -20.37152714243568    2.84035992482619
C          -4.60753001867768  -21.43515586271685    3.75669117745113
C          -4.08914415290184  -21.42084535550067    5.01280126568620
C          -3.59004958491646  -22.70139999039657    5.60399131583045
O          -3.86514270900790  -23.81872679734410    5.24509023800166
C          -2.64709764597441  -22.28641771157679    6.66175665711698
C          -1.81881866119967  -23.06265493515041    7.42027875201250
C          -0.96455263039962  -22.44194739530886    8.35879874978932
C          -0.98511764392939  -21.02259081800249    8.49288585801765
C          -0.12283626655632  -20.41007330184819    9.42435915471511
C           0.71878745893141  -21.17013652335988   10.18731676686711
C           0.73667711129082  -22.57395675431718   10.05534843534113
C          -0.08772054471792  -23.19775174222156    9.16114502936598
F           1.57201380143501  -23.29208492347406   10.81481228914499
F           1.53768192480104  -20.58647876146896   11.06955939965265
C          -1.86145381632642  -20.24517670831007    7.70167021269928
C          -2.68312191824723  -20.86855506777303    6.80068068857406
C          -3.70035533529146  -20.34121128731766    5.89532864255429
C          -4.32010928752719  -19.12742772442992    6.01804921516883
C          -5.51806839377996  -18.78016234675380    5.35679758447027
N          -6.51998286481779  -18.45650297093778    4.90062257707922
C          -3.87621100170594  -18.10039705214351    6.87393500434522
N          -3.53008073841998  -17.19851587220718    7.49446600843701
H          -9.07986760544612    2.42626719133289    4.23890319012741
H         -11.80943882740089   -1.70555672741941    3.99832565051273
H          -7.03165737776410    1.10810766431429    4.12203280548466
H          -9.72919709918185   -3.07993153089071    3.87876320917262
H          -3.50934760534161   -3.12335797860775    3.20874534641040
H          -3.06949793820193   -5.43315445898347    1.78219807154101
H          -5.72566491203733   -5.63293456843051    5.19317665421259
H          -4.23540257516132  -10.01885888202251    3.25218293990819
H          -2.17443977093491   -9.77994679156951   -0.55254498822245
H          -3.66207523463634  -11.24044089318992   -1.34329050563379
H          -3.84838734018049  -12.95222884482961   -1.78578999854590
H          -1.14353188633815  -11.72047417208653   -1.05280680470994
H          -1.72214421248001  -11.97671899233368   -2.70582258653012
H          -1.45736138448619  -13.35495148035831   -1.63503950599974
H          -3.55267953676679  -13.59847600278027    6.16425734900498
H          -3.32514882369354  -15.31334978450825    5.76008618026521
H          -5.97507613310941  -13.77317411690791    5.76072890580111
H          -5.47050616538822  -14.98905394576064    6.93929417844039
H          -5.81628465352882  -15.46586661882631    5.27444914967957
H          -4.00569494464797  -16.70964918202211    4.06187397771114
H          -4.44408350425043  -16.44689299565357    1.02399018206116
H          -6.60630955955013  -20.77205182775827   -1.36760926378470
H          -4.84278253349404  -22.41199135263526    3.34736557728376
H          -1.81437814750651  -24.13563490960892    7.30422259685474
H          -0.12529180164147  -19.33761008714075    9.54122887838805
H          -0.06213047362670  -24.27244443232103    9.07169122705084
H          -1.85266364698495  -19.17306799120774    7.81965392598144
