102
 SCF done       -237.773787850735          0.000961446781
C          -4.20218843527170    2.29563886539431    6.41403738874521
C          -3.96284008514907    2.28332171319119    7.75955771527442
F          -3.82689006697788    3.43292059801066    8.42962605581886
C          -3.85633076846878    1.06302300122604    8.45880287842849
F          -3.62234232573548    1.08159562752924    9.77620912117054
C          -3.98946067588030   -0.12794591142662    7.80169199032584
C          -4.23509212482554   -0.14837464558647    6.41475275385883
C          -4.34614852044850    1.08451101616831    5.70705903996348
C          -4.59619440403269    1.08824296477614    4.31637844038843
C          -4.73279883964232   -0.10392424312686    3.65300303380674
C          -4.61023933082949   -1.33008348461941    4.36538790968251
C          -4.36730950072000   -1.36415083853952    5.70933769320255
C          -4.75403620480120   -2.46441246226718    3.43626676341104
O          -4.61726758154650   -3.63689534078359    3.70360314750523
C          -4.97314304696203   -1.85014227782353    2.09179334814741
C          -4.99785144543093   -0.40270906930690    2.25124364179256
C          -5.30888362429878    0.50648448559385    1.27901201428692
C          -5.36102365732750    1.90175112191013    1.49228494008611
N          -5.41343630210809    3.04141846844206    1.61144484434510
C          -5.65670574315605    0.17637773587882   -0.04998639764223
N          -5.97255094457987   -0.01985783294413   -1.13531150264336
C          -4.95050404734409   -2.53358955875896    0.92322085650637
C          -5.05086441198083   -3.96341379601046    0.81399858966691
C          -4.23228765783402   -4.67107419381549   -0.08918433325553
C          -4.25169830761761   -6.10876947700194   -0.16119301422708
N          -3.47728768664406   -6.74905972748947   -1.05833113770744
C          -2.66454898945195   -6.05119732511917   -1.80198083560240
C          -2.59306952939286   -4.61743832353397   -1.67997625201551
N          -3.37438836303203   -3.97268726792146   -0.85613142565179
C          -1.67499636820963   -3.88890695764878   -2.48006518501903
N          -0.91409293800934   -3.33423076730488   -3.13109108108904
C          -1.85521959053585   -6.71814223415585   -2.75840804215450
N          -1.18770223553741   -7.22421932088862   -3.53847412545459
C          -5.08761290775996   -6.87159222241426    0.67126372678875
C          -5.95736842647103   -6.17147447259710    1.51115213928513
C          -5.95523794129318   -4.72502259527150    1.56770773181396
N          -6.88922972054240   -4.26726278564524    2.40744890817996
S          -7.62632736255380   -5.50797855609028    3.08755574977424
N          -6.84980084885802   -6.69459676030650    2.36171583978181
C          -5.02989214454819   -8.33173762551574    0.67310309323557
C          -3.81950336378458   -9.01151334277515    0.82854938800001
F          -2.69007191706661   -8.31889866179159    1.01335481745376
C          -3.77392250710693  -10.39337646036482    0.86075487464057
F          -2.58922057364322  -10.99043466466336    1.03925183391038
C          -4.92721323270351  -11.19091699964248    0.74472770751412
C          -6.13424974066010  -10.49435754997063    0.57031333928971
C          -6.18111480044825   -9.10955107944493    0.53793971865345
F          -7.35684957136697   -8.51028971444882    0.32507155098028
F          -7.28417647123888  -11.15803246676016    0.41285561545488
C          -4.77955982716169  -12.62241962503404    0.81963646121388
C          -5.77096501012048  -13.53358350069831    0.93976019590561
C          -5.55183622960677  -14.94071208970919    1.06664627932791
C          -6.66842777597698  -15.79559193548562    1.25493325122769
C          -6.53426460029050  -17.22356268662147    1.37382304789831
N          -7.61628076850039  -17.97271647175997    1.64050724076126
C          -8.79823386857269  -17.41374162841430    1.67157320838526
C          -8.94296051820875  -16.00213874010476    1.45865878764900
N          -7.89060330680807  -15.24274434263059    1.30388406184875
C         -10.23551266238998  -15.41799090059672    1.47043207321562
N         -11.29704510256013  -14.99016408540871    1.49409037497703
C          -9.91892369087387  -18.24799512048664    1.91326503160906
N         -10.81303155714320  -18.94577086366306    2.07119619580433
C          -5.28327055826933  -17.86947859429327    1.25118545835576
C          -4.17230795586846  -17.02123276473720    1.10788157714823
C          -4.29775906693639  -15.58334113674437    1.00764495475391
N          -3.10110792232537  -15.01059866809466    0.83616595914159
S          -1.96904775742162  -16.13816787441788    0.80090349475739
N          -2.90129481187816  -17.41847893098436    1.00175281954040
C          -5.12252087602514  -19.28699160523503    1.32417552998088
C          -6.02302795712960  -20.24880280647707    1.00792875995960
C          -5.86998253305838  -21.62409070877235    1.57776962149874
O          -4.87375084983294  -22.09470229929340    2.06870169950687
C          -7.21372404449542  -22.22517267980413    1.47130405272576
C          -7.67195623932881  -23.40062429707791    1.99434241557112
C          -9.02796638412009  -23.75143791304306    1.80949780499959
C          -9.88996457685674  -22.86996122897948    1.09259179669297
C         -11.24651318664455  -23.21641471964346    0.93165085741766
C         -11.72343687578516  -24.38758352258088    1.45005563428345
C         -10.86883415798818  -25.26227799440640    2.15260109482736
C          -9.54975005560238  -24.95175614423750    2.33044172162610
F         -11.36311720497285  -26.40359304557375    2.64806566587005
F         -13.01004140772480  -24.71971560679096    1.29481434509201
C          -9.38592789996257  -21.66656739195142    0.55025834837194
C          -8.06482152962388  -21.35454556735898    0.72999519702694
C          -7.28349088148811  -20.20602051148025    0.28970099167072
C          -7.59088512131785  -19.39143919949869   -0.76710320143222
C          -6.73309697544226  -18.37695536555885   -1.23428039207749
N          -6.06658564723547  -17.52609854357889   -1.62216637530119
C          -8.79791608935237  -19.47025043010311   -1.49229539937290
N          -9.77301590183957  -19.47406730771579   -2.09673543765343
H          -4.28198440265459    3.23803407063214    5.89501400365848
H          -3.90364706750286   -1.05254186018977    8.35076489021090
H          -4.66666543537178    2.03618479287425    3.80791213970316
H          -4.27693355864317   -2.30768240678482    6.22585324186901
H          -4.79451321536434   -2.01064288549662   -0.01178274330442
H          -3.75764020773068  -12.97659394805496    0.80926391396022
H          -6.81053879746955  -13.24594531993978    0.97792098162721
H          -4.17967010605083  -19.62884696174221    1.73856206495715
H          -7.01121692335211  -24.05104022214710    2.54713217123247
H         -11.91229125626288  -22.55635423980391    0.39833043142518
H          -8.91057247265485  -25.63049773523270    2.87317053329223
H         -10.06161188644426  -21.00947901942093    0.02641829784934
