118
 SCF done       -239.980599945540          0.000911377687
C           3.89180942249908   -1.05844475295851    9.35282903434809
C           4.47135549505441   -1.38122105142439   10.54777212697380
F           4.99622479710703   -0.42406151781824   11.32133831293780
C           4.52417154866511   -2.72213053368227   10.98129787547134
F           5.09729122823733   -3.00791547584064   12.15645381682592
C           3.99646680001280   -3.72182790686623   10.21301544995751
C           3.39196267248585   -3.42106328961095    8.97685095056696
C           3.33846479321412   -2.06592917044375    8.53691112404367
C           2.73671451768816   -1.74036307575371    7.30023429414723
C           2.20563955209711   -2.73926772170095    6.52635335065824
C           2.25875452740325   -4.08873746496215    6.97644429178124
C           2.83298157037088   -4.43358048179888    8.16662690616549
C           1.59662239439213   -4.96494449012282    5.99360617101470
O           1.41501148888979   -6.15773544205779    6.08653145553737
C           1.11493192061759   -4.05787931784244    4.91382804670523
C           1.53705532603523   -2.70451913515669    5.23018530987604
C           1.40236715746247   -1.60688268512134    4.42350560618616
C           0.83200171216387   -1.62701868136783    3.13195944418052
N           0.40064762806541   -1.58028776283626    2.06960597705065
C           1.85271011151293   -0.31427180261996    4.76834157776784
N           2.19768663706427    0.75551967241467    4.99840954431259
C           0.25946120518988   -4.44723764460152    3.93000353521626
C          -0.06429342688628   -5.79271076536105    3.59751575932987
C          -1.29664603364589   -6.22373878691352    3.16278474915935
C          -1.26126641482373   -7.64216292861557    2.99536270447261
C           0.12395990967004   -8.05101705909522    3.27652715928926
C           0.82867276652870   -6.94730607734425    3.63964554702476
C           0.65170288905980   -9.34224945311984    3.15606246201658
N           1.10673326631246  -10.39038040542173    3.03820297039621
C          -2.31454029802903   -8.47515184200476    2.69098837935381
C          -2.27625039233371   -9.89127283551355    2.59295752802809
C          -3.55416381903658  -10.36319690964593    2.35305112325132
C          -4.43946220139950   -9.21330863500392    2.23460257790070
C          -3.71788659281691   -8.08525817053673    2.45705098194468
C          -4.23785365028917   -6.78460826310966    2.46506702613480
N          -4.68842981239881   -5.72893612446248    2.46099135843643
C          -3.96697971718161  -11.70100856552114    2.18973947653830
S          -5.33644750514693  -12.05914970957759    1.20194708312211
C          -5.05420162622935  -13.77496581632291    1.28161160871472
C          -3.92283150721544  -14.05768744207171    2.09435551650066
C          -3.34712088037111  -12.88572246473174    2.65577824786625
C          -2.33622342430097  -13.00385754607261    3.63884097684389
C          -1.94800916598800  -11.94361886121560    4.48684734361122
N          -1.66243504848654  -11.15732151626966    5.27145186387917
C          -1.80989624527739  -14.26052471138936    3.89528590880732
C          -2.28070092588922  -15.39425353267517    3.24473223469503
C          -3.36054285259218  -15.33067522387108    2.37462703959104
O          -3.91965107422517  -16.40268013358769    1.78217745553665
C          -3.38319410793677  -17.68880105014972    2.01995558324554
C          -5.88113392698305  -14.67682196726152    0.62392364451393
C          -7.00420882033284  -14.31323360490056   -0.09354984374094
C          -7.85007923766222  -15.20881232150176   -0.73981102971661
C          -9.19176058376719  -14.98810055860980   -1.09247009984086
N          -9.90398623433920  -13.77874541388442   -1.05862738067115
O         -11.09455012401428  -13.82427517381699   -1.31338206880923
O          -9.30032368429641  -12.74967594577439   -0.79370458614609
C          -9.79442750830104  -16.23327433445441   -1.41266358689156
C          -8.86390584674679  -17.23368855422620   -1.28107526202545
C          -7.61369102836522  -16.65776705005136   -0.94527594683610
C          -6.37259720148535  -17.27583565317084   -1.01648072132414
C          -5.16961353360336  -16.66139501024618   -1.49968208554120
C          -4.23253597732688  -17.62718127569256   -1.70734579190889
C          -4.78132410167282  -18.88589220678053   -1.30789977445102
N          -4.03286636503795  -20.07443992719544   -1.28998785907347
O          -2.89232701714210  -20.02423045623538   -1.71793404195082
O          -4.55129821141979  -21.08475628266955   -0.83927470267470
C          -6.09654684050165  -18.70311368243731   -0.87086946551611
C          -6.93965655388828  -19.66523627654180   -0.26496851401680
C          -7.86269980626479  -19.37180928552356    0.69833364265040
C          -8.69674430893678  -20.36771208206941    1.23744930564400
C          -9.57348940987946  -20.36430114857361    2.28968130337469
C         -10.20453174655840  -21.68415558747335    2.59654158425089
O         -10.13386833610465  -22.68082195173247    1.91501192604417
C         -10.89192938430404  -21.51894915745628    3.88519889701023
C         -11.56621160495191  -22.45271396439174    4.61775969028994
C         -12.12585868089235  -22.07746207854875    5.85855512826305
C         -11.96445077926498  -20.73698783747329    6.31338873176267
C         -12.51642860459835  -20.36383737041130    7.55565389712427
C         -13.19774942186929  -21.27859598415814    8.30840304755858
C         -13.35750973654649  -22.60454344868921    7.85619907151201
C         -12.83306651867814  -22.99736089697959    6.65661868850501
F         -14.02897921087487  -23.47873742234776    8.61579746260495
F         -13.72145784715518  -20.92318829827786    9.48784621810520
C         -11.26271655627129  -19.79405769929329    5.52811598916421
C         -10.73606724877408  -20.17404155546887    4.32065983982797
C          -9.99422650895424  -19.41893411778535    3.30263197618989
C          -9.83952421278636  -18.05527345796743    3.35887722092038
C          -9.28437449288542  -17.18982364373513    2.40110878837477
N          -8.87348887897461  -16.37647883049030    1.69952161194429
C         -10.27551390688975  -17.24662051897896    4.43438976790783
N         -10.57238531384263  -16.50739937822002    5.26112294915472
H           3.86066759932014   -0.02759309353570    9.03618716757868
H           4.04385761272431   -4.74253721019925   10.55883901462910
H           2.70504240741570   -0.70579517918211    6.99890137606533
H           2.85832700108674   -5.46487565410601    8.48430624327339
H          -0.28148251490401   -3.69024958738274    3.37439656565020
H          -2.16823741276809   -5.61134197466810    3.03550104331859
H           1.87700995410526   -6.91086171475232    3.86248691464980
H          -1.37959008166469  -10.47436410204796    2.63776783742502
H          -5.49463100978546   -9.27481723611545    2.04081281068219
H          -1.02331049497283  -14.35822771924736    4.62783537304963
H          -1.81439233743365  -16.34022019274767    3.46454871566362
H          -4.02342912259287  -18.37590710822125    1.46953913624105
H          -3.41165811818148  -17.94471101622380    3.08219371911373
H          -2.35976577625400  -17.76882605480517    1.64510589787673
H          -5.63805098154245  -15.72111085064064    0.73354893690581
H          -7.31727242691946  -13.27516587577129   -0.08582867892064
H         -10.82125421603430  -16.33991032154553   -1.70980254980600
H          -9.01857589629346  -18.27026025187954   -1.51065366813017
H          -5.08326892426074  -15.62448053205146   -1.76021499342339
H          -3.24152350176582  -17.50800526889004   -2.10145103029326
H          -6.76506628156286  -20.70066607577708   -0.53202652559413
H          -7.92601786837557  -18.36145303023634    1.06348910832134
H          -8.63029841921066  -21.34132104115227    0.75569195704336
H         -11.66783628678473  -23.46377515923596    4.25409035776219
H         -12.40563433591095  -19.35289344480170    7.91582421342886
H         -12.96336871465745  -24.01532461898639    6.32436327559298
H         -11.15904915488911  -18.79389971271681    5.91415529315135
