75
 SCF done       -146.739678883224          0.000775642078
C          -4.03219351928551   -3.48598540579881   -4.03940443428162
S          -4.40672046576699   -2.89552491704752   -5.65492526043590
C          -5.70736601409077   -1.83507624973998   -5.04268681349893
O          -6.38428892438284   -1.12332127371115   -5.72248115467521
N          -5.78588491949025   -1.98251578783307   -3.68641972581969
C          -4.91971161364635   -2.85848944404459   -3.05603996443523
O          -4.94201306281595   -3.03515747875171   -1.85834591812108
C          -6.76567967399362   -1.22511139943494   -2.93653015794477
C          -3.02698350879598   -4.38769373240019   -3.88370144737749
C          -2.50697346998055   -5.02904534672199   -2.73267156037312
S          -1.14966035442351   -6.11004926184794   -2.99040030349887
C          -1.05774788287827   -6.49182654464535   -1.30693117657928
C          -2.04985931948107   -5.80148017390477   -0.59601919068984
C          -2.85545975797824   -4.98538918382157   -1.39680913382161
C          -2.19351909317149   -5.94064330403344    0.79564099670715
N          -2.28681403804286   -6.07886310116486    1.93049364664894
C          -0.10592744478356   -7.37220038288235   -0.74008669092602
C           0.84332091150306   -8.01453657810863   -1.46919010182273
C           1.86926794685272   -8.89843546716573   -1.05652418884381
N           2.20533480040362   -9.35966949513021    0.19930089348956
C           1.53712319570340   -9.12523083064602    1.45756345946250
C           0.25942527913369   -9.95023178299498    1.59028188184569
C           3.32645728656000  -10.20960829051430    0.15756469841156
O           3.80895655818164  -10.73373810854535    1.14340218239997
C           3.69947884616278  -10.25931938447182   -1.23686076810223
C           2.78583353819192   -9.44834185728900   -1.95007214324842
C           3.15302413836159   -9.47206721007173   -3.34843249821870
O           2.67077537159805   -8.94643211346264   -4.32831599445617
N           4.28893909931381  -10.31058950707407   -3.38699348806280
C           4.97634050098730  -10.58264940011191   -4.62691277059409
C           6.23324108180568   -9.72999239433734   -4.78516061433322
C           4.62505301680324  -10.77479778853903   -2.13933535198627
C           5.73886570480973  -11.62595178249606   -1.89578564918234
C           6.03593941452573  -12.10965974296969   -0.67072151737337
C           7.15033718253348  -12.96515703595576   -0.38198869728914
C           7.66677991993158  -13.21122017715130    0.87403972322109
O           8.73725566784277  -13.99251869528381    0.81883660377446
C           8.95744376386075  -14.28003467545504   -0.47858777961155
N           9.99223489058492  -15.19225991135514   -0.77815999310552
O          10.11718736533454  -15.51368097407394   -1.94784564693333
O          10.67399220812885  -15.59364065170120    0.13948182872388
C           8.00545565162686  -13.68023283408477   -1.28985070469854
C           7.83506566796956  -13.75742734104720   -2.71441721680030
C           8.77787663123129  -13.61232119768884   -3.66266242265079
S          10.47635594622405  -13.30461019470727   -3.45674398462456
C          10.73245718706333  -13.25947161493409   -5.23324390062544
O          11.78588329614798  -13.06609220268545   -5.75774511921434
N           9.53458487865848  -13.46694977039549   -5.86964621971405
C           8.41182419727443  -13.63615956272404   -5.09541366301640
O           7.29071357723030  -13.75036577440088   -5.52849496965059
C           9.47483336222421  -13.48144177106068   -7.31615082940547
H          -6.58273083989594   -0.15770954022470   -3.05823904355469
H          -6.66457684035763   -1.50839478315007   -1.89047329814262
H          -7.76777222735991   -1.45599654937805   -3.29673441953729
H          -2.52502814267178   -4.66987455279335   -4.80284910598516
H          -3.66131548517492   -4.38421398819256   -1.01848591938608
H          -0.19092173216712   -7.49383695543342    0.32915248080222
H           0.85733677069100   -7.84267573550031   -2.54024975210855
H           1.34027609522935   -8.05729945038233    1.57859701615255
H           2.24760870105175   -9.43408488205093    2.23045516050481
H          -0.42656531595140   -9.75240020268514    0.76978103790282
H          -0.23714568585942   -9.70896968758900    2.52581411143073
H           0.50243211579753  -11.00999417646397    1.58709637604212
H           4.26826449991738  -10.33501456812825   -5.42269689478099
H           5.21966154401572  -11.64684060591915   -4.69256075188484
H           5.97076593827321   -8.67493772063493   -4.77860047572882
H           6.71315273548946   -9.96336531106895   -5.73149336078704
H           6.94014170187731   -9.91494223014200   -3.97884825907838
H           6.36673200299495  -11.86088840962400   -2.74106729580894
H           5.43109706293223  -11.82356133826893    0.17984044913312
H           7.34308063622219  -12.86676127018479    1.83729088182840
H           6.82113371291354  -13.91371107518954   -3.06549974945752
H           9.90269397630883  -12.56134033841886   -7.71315403672820
H           8.42701039439300  -13.56688825684638   -7.59800413601904
H          10.03810335961485  -14.33001926545889   -7.70410776329144
