100
 SCF done       -189.357219205316          0.000888511735
C          -0.56832251540622    1.26546504047105   -7.50269208094585
S          -1.84967007151167    2.39173061567021   -7.84170787427492
C          -0.67421552499018    3.75323619710761   -8.00215545534587
O          -0.98424778324820    4.86134414245605   -8.31463005852814
N           0.56781078377723    3.30394439514462   -7.67013652914906
C           0.71347671316561    1.98049487460387   -7.30426013590702
O           1.71446243036442    1.52965558402281   -6.80726499744590
C           1.70374072554719    4.20099770998076   -7.68904558307357
C          -0.72740053012297   -0.07122645574375   -7.39871650264736
C           0.34273487536279   -1.01875780652363   -7.35176449402406
C           1.47704006224609   -1.09336195832638   -8.13933711976485
N           1.89624409356582   -0.24831229505061   -9.18151467281936
O           1.25987452901850    0.76798189039448   -9.42717994415679
O           2.87591241044630   -0.59350504763636   -9.81594268669558
C           2.17414294903326   -2.32538298984896   -7.84879162728356
C           1.47198348865655   -3.01973868727638   -6.92215413353933
C           0.31179658846430   -2.25644107644744   -6.55411797473667
C          -0.59151476921110   -2.51994157435300   -5.54645561803120
C          -1.36664943010538   -1.54979905665176   -4.83983087693912
C          -1.95993333066511   -2.15763932627399   -3.77743243304430
C          -1.62889407666112   -3.55316760355771   -3.77918767919182
N          -2.21896241936150   -4.40474797454712   -2.83065272543542
O          -1.83212357191876   -5.56080373917655   -2.72587711039525
O          -3.10691432334815   -3.93370620488389   -2.14114441817456
C          -0.80293654266783   -3.82479118988153   -4.87981196523641
C          -0.38067561039864   -5.01769183367287   -5.49456661686120
C          -0.23145512823592   -6.25481051053163   -4.92062035704492
C           0.14601733915179   -7.38166035670363   -5.66628859993426
N           0.30714508316990   -8.63162088147052   -5.12196346974015
C           0.08207494531356   -9.00673574699751   -3.74347985815488
C          -1.40219848057508   -9.08386227415463   -3.39845297962316
C           0.68750677889822   -9.58095869864562   -6.07891009177028
O           0.89215304628443  -10.75104742812904   -5.82891291208086
C           0.77180708371770   -8.82890704521545   -7.31993705754179
C           0.43686343309565   -7.49642368154532   -7.04178716918485
C           0.52242852828894   -6.74423089158419   -8.28139790241814
O           0.32178123326281   -5.57340728561735   -8.53277481210020
N           0.90533523946299   -7.69407773225972   -9.23920574812071
C           1.13709618315284   -7.31718882685293  -10.61492038607831
C           2.62384708910609   -7.14818875083846  -10.91435866327218
C           1.06438238906227   -8.94530999705586   -8.69431612996208
C           1.43527487949329  -10.08417558446529   -9.42565868582090
C           1.59304253040009  -11.31450189916991   -8.84191458646695
C           1.95944463900932  -12.48480577822658   -9.53338604174128
C           2.22203490641418  -12.66610810863155  -10.88459060160172
C           2.54626886307714  -14.02452450394273  -11.12038020080985
C           2.47505865330201  -14.69870030709257   -9.80906461519114
C           2.12506392036275  -13.77450552623231   -8.87816848529210
C           2.72229249448321  -16.05157143783486   -9.54834760842150
N           2.92102399461750  -17.15632197936164   -9.30470387765952
C           2.85571128566260  -14.61736794304903  -12.33015590248076
C           3.16308547943716  -15.97790228550287  -12.57728211185018
C           3.38722725655448  -16.16234722071919  -13.93061069828948
C           3.22654269661381  -14.86964081643652  -14.58447497585469
C           2.91277543730184  -13.94225506836552  -13.64329001561615
C           2.68772149135941  -12.58415576050794  -13.89231314405336
N           2.50656505324793  -11.47141093374887  -14.11529290230426
C           3.70496267258008  -17.39286032236171  -14.54784116772885
C           3.89205779183804  -17.58187667993854  -15.88463226110032
C           4.19517118612240  -18.84268627736035  -16.43834036506200
C           4.37219176409817  -19.08672780492676  -17.76414632150618
S           4.26795602251257  -17.92139262096194  -19.05606471933579
C           4.62456363696301  -19.18253313099985  -20.29234526470955
O           4.68799293524801  -18.96632252052424  -21.46418197421396
N           4.79919048295817  -20.38037910090329  -19.66503099552873
C           4.67992809766768  -20.42411198989340  -18.28504083187810
O           4.81256330935626  -21.43031096502075  -17.63164723089515
C           5.10005451310684  -21.56916405179840  -20.43477516318205
H           2.12120068411198    4.25146557862123   -8.69534826630364
H           2.45146148381828    3.80282458967199   -7.00486125049228
H           1.38320388359824    5.19372651897032   -7.37832511790907
H          -1.73127388384356   -0.47697716782974   -7.38883637060731
H           3.09937699987660   -2.59955015172469   -8.31830983784713
H           1.77480799899942   -3.93770122463244   -6.45984330478757
H          -1.37668077798247   -0.49934571156928   -5.05409494425448
H          -2.58048784841601   -1.70387965829329   -3.02757789558940
H          -0.15188174627137   -4.92437151442565   -6.54877078837846
H          -0.39755141743901   -6.38184814519446   -3.86361450722559
H           0.59199399299130   -8.29833587812893   -3.08577733634546
H           0.54106881243666   -9.99246146769310   -3.62697596002539
H          -1.86734722923936   -8.10245404962011   -3.43100366530262
H          -1.51610759169305   -9.48141901006133   -2.39424464132019
H          -1.91551046658229   -9.74451365504713   -4.09310960365017
H           0.62332479222921   -6.36290482535163  -10.75856522117031
H           0.68846504255942   -8.06211226470137  -11.27697281084667
H           3.04548544799704   -6.36956860910471  -10.28347852791454
H           2.75560544614881   -6.86142856451186  -11.95348575236810
H           3.16766012540503   -8.07321371985927  -10.73646547161153
H           1.59839613797932   -9.97465939949525  -10.48775856499025
H           1.43065666851373  -11.41293691262694   -7.77616553488735
H           2.18731727170329  -11.91242910180299  -11.64545899538038
H           1.98614703060215  -13.93996151418155   -7.82592503269797
H           3.20742570650338  -16.74411165819163  -11.82847237242217
H           3.34121776031144  -14.68507056095235  -15.63593431298675
H           3.79478218408610  -18.24540074779989  -13.88593073205122
H           3.80506707704349  -16.75378656364071  -16.57481501676765
H           4.29544105550005  -19.69461575014321  -15.77695297397457
H           4.32563804055964  -21.73174649719380  -21.18401755882362
H           5.13521542883599  -22.40446056809076  -19.73722687090309
H           6.06151198282538  -21.45709669984207  -20.93619256112202
