76
 SCF done       -167.084069260373          0.000599685929
C           0.62864072095590    0.58429272970539    0.01068962080496
F           1.30836656590185    1.35989848674110    0.84594470293230
C          -0.10629793318245    1.14699631261538   -1.03652449159043
C          -0.22309347781878    2.65480570208107   -1.13419807233407
O          -0.20592876995175    3.34544219922024   -0.16107031574648
O          -0.34263243606296    3.16633764677030   -2.35779193278901
C          -0.76070534607653    0.26267543871436   -1.89360104593741
F          -1.48098996698703    0.74272186495298   -2.92297954194875
C          -0.70023846100306   -1.11140475986909   -1.71689612241000
F          -1.37988269804552   -1.89773016569149   -2.55873027435961
C           0.02950898288856   -1.67924829426441   -0.66865616867677
C           0.69683236526315   -0.79303527836196    0.18166299023824
F           1.44523886223469   -1.27860267227135    1.17913971980099
C           0.09396810769614   -3.12455713995830   -0.47173910772906
C           0.28190196326733   -4.03073941614154   -1.52857093971575
N           0.33189838289224   -5.32287987326002   -1.33908735419039
C           0.21329817962454   -5.78663610186723   -0.09304144918587
N           0.04061540786976   -5.00823032386746    0.97939213347083
C          -0.02470957386119   -3.71118205573366    0.79385797316148
C           0.28076049268880   -7.21941010931329    0.05507094946179
N           0.30209492140653   -7.90071768278235    1.24408492200567
C           0.19773527395994   -7.36449335407419    2.58016599191170
C          -1.25293127981202   -7.07847160948494    2.95553023858697
C           0.38415697248196   -9.29194508773033    1.04084717399482
O           0.42341238552040  -10.09970612335504    1.94633786559477
C           0.41634266634538   -9.44215415867141   -0.39596002284964
C           0.35472877494797   -8.14613790682620   -0.97474097519390
C           0.38293954504052   -8.30058346927661   -2.42067878164403
O           0.35620141223369   -7.51990588380039   -3.33989957989346
N           0.46542359178392   -9.70331795828718   -2.60692430508072
C           0.47715867527569  -10.28065627924609   -3.92960246282367
C          -0.89245276890389  -10.82558309064470   -4.32757378211747
C           0.48097243096588  -10.38355295473192   -1.41756970488304
C           0.55092982316218  -11.80356059181554   -1.33059328213946
C           0.59968576152974  -12.48514189087750   -0.16814309534248
C           0.64740424782343  -13.93324347383679   -0.14822518387163
N           0.84861773051760  -14.52198500562897    1.03359428855986
C           0.89130936061533  -15.83861912028947    1.05526211614869
C           0.72201626993230  -16.60892207924381   -0.08805946515628
C           0.50078098743291  -15.91118183681007   -1.28078076544327
N           0.47549727400586  -14.58113163725593   -1.29748946476848
C           0.27473147492423  -16.60954932354760   -2.53706028694680
C          -0.00130255998259  -15.92899048075705   -3.66010360902412
C          -0.27128390472014  -16.45502251752805   -4.97921627357515
C          -0.38094264373547  -17.81078701873198   -5.31424089311669
C          -0.64151254409258  -18.23444290099068   -6.61258373168693
C          -0.82726055913504  -17.32461859834114   -7.65656766801696
C          -0.73500405927390  -15.97222343595462   -7.32753956933389
C          -0.46135927022137  -15.55227175751554   -6.03755013612594
F          -0.38041380529664  -14.23644940425363   -5.79902361437227
F          -0.91220439241562  -15.03782800107238   -8.28024468838091
C          -1.03427726605149  -17.84105064309185   -9.06575658898199
O          -0.56010702008913  -18.87487553854803   -9.42718388241892
O          -1.77345277561116  -17.08565938018275   -9.87609783347482
F          -0.74792592985228  -19.53884262598277   -6.83488831768913
F          -0.24074707376014  -18.75082201490781   -4.37374888258996
H          -0.43268174009580    2.51970405892800   -3.07084844383279
H           0.41335888791587   -3.69871511648663   -2.54932261458332
H          -0.19965850098951   -3.11756868524432    1.68151700283023
H           0.79253044052691   -6.45321220687307    2.64990501013336
H           0.60690400339236   -8.13106846524805    3.24425368468253
H          -1.66578308480241   -6.31381896681485    2.30300120787707
H          -1.30229569416479   -6.72677482104972    3.98177462902457
H          -1.84838843037218   -7.98396414126498    2.86686363278064
H           1.23613672193572  -11.06605299135961   -3.97875977813037
H           0.76112688574152   -9.47240950394873   -4.60918612007911
H          -1.23343529977455  -11.57837925047134   -3.62055416698118
H          -0.83481625074956  -11.27583846749820   -5.31441569495280
H          -1.62055876399544  -10.01879633871193   -4.35213708707374
H           0.56740022110059  -12.36712662960360   -2.25243248489308
H           0.60875959562288  -11.99127022680420    0.79289219003110
H           1.06505654758718  -16.29066656718988    2.02346367310194
H           0.75101371200237  -17.68572843693440   -0.06063361293865
H           0.33347379013634  -17.68549040850650   -2.49645380190142
H          -0.02723133522927  -14.85035220322002   -3.58139762315823
H          -2.03436480093822  -16.22612998588771   -9.51861662493974
