90
 SCF done       -194.593337185637          0.000319246231
C          -2.11257055695417    7.22069631985575  -15.78016050395169
C          -1.23301156179461    7.26769027468208  -14.78180879601373
C           0.19114251613863    7.36126695638287  -14.94155690641309
C           0.99347577355340    7.43129371737207  -16.07156027875006
C           2.31080886410203    7.50478437264796  -15.59825560025688
C           2.21609122324506    7.47447573583266  -14.19899693585733
O           0.95172396838640    7.38899542549546  -13.80338492765114
C           3.53101971373254    7.54198799459093  -13.66318461942153
O           4.15828399943959    7.55375156958465  -12.49349290107269
C           5.49867624027821    7.63084513104985  -12.77744166078811
C           6.44873567044059    7.64950181711787  -11.72464312029430
C           6.12346831568776    7.61984481646783  -10.40931068411517
C           7.07341765031439    7.61090147203169   -9.35525560526663
C           6.85070730611673    7.58700004796598   -7.97679520854468
C           8.11678455227960    7.56355427536919   -7.39036758876916
C           9.03456201551732    7.57649929299152   -8.45446261367904
O           8.41180536673304    7.60521539667295   -9.63039141937858
C          10.34225025898810    7.53523495611662   -7.91019835273511
O          11.60329637808384    7.50104857685492   -8.29602866533194
C          12.35701459226736    7.41435199141057   -7.15041653694169
C          13.78135989558671    7.37231500127602   -7.30448497569220
C          14.44015801519201    8.04747549228211   -8.35104850594575
C          13.86843539916658    9.07119738563745   -9.25561873056414
O          12.79227758392657    9.58251666167358   -9.27788339902205
O          14.87339378341611    9.45288281466642  -10.10930343593264
C          16.05060993838308    8.82576949928537   -9.80083809553241
O          17.04289975961674    9.05617356180388  -10.42598223646687
C          15.80088579336185    7.93088050568250   -8.64309273110626
C          16.66703962672163    7.08824728787139   -7.89599568601712
C          18.02899457179745    6.75115904916858   -8.13556595626192
C          18.89583064936529    7.28706589004676   -9.03559063348135
C          20.20990807902053    6.79613394599365   -9.20875587688522
C          21.22257051022153    7.27806446950736  -10.04253812110964
C          22.30476651733939    6.41764782065585   -9.86659329353419
C          21.87584040369546    5.45138669705272   -8.93009339602671
O          20.63535229360082    5.67688830716807   -8.53292993580368
C          22.92723411202557    4.52354734440140   -8.73984115518290
O          23.20410809380050    3.40689517756842   -8.07292279007382
C          24.47241794194738    3.04483034798858   -8.43133247814794
C          24.99968013038402    1.85137185299480   -7.87410734351708
C          26.23292874007070    1.35427721568275   -8.13292636371373
C          26.72078827083499    0.13677517841228   -7.59051405094556
C          27.95716968744856   -0.47963941807979   -7.77878603598626
C          27.90886806030572   -1.66199054760081   -7.03537454672579
C          26.63988244200183   -1.68769856873586   -6.44039783422628
O          25.92651879350052   -0.61726735321804   -6.76642796587195
C          26.53630027659592   -2.88529469618123   -5.67308230881532
O          25.67622360730914   -3.53397384384829   -4.89512867804919
C          26.30969127038533   -4.66800925272869   -4.50593508771237
C          27.57327834485707   -4.75902081857478   -5.02499982816983
C          27.73874107815181   -3.59013961212473   -5.79815496682728
C          28.66126622037652   -2.86039309365261   -6.65661137518899
S          30.17169410663160   -3.27202858861542   -7.09860782038401
C          25.00667557883523    3.95928408369377   -9.34324477236089
C          24.01079126452585    4.91428528368848   -9.54734899905273
C          23.66928415494691    6.12829853593881  -10.28894231079795
S          24.59649323378662    6.95098844367121  -11.34200860125353
C          16.01038575906302    6.48957355424680   -6.79013333250869
C          16.58751328558298    5.59591447692073   -5.75910796057576
O          17.70479492468985    5.20869685047011   -5.59577265396885
O          15.56640375151656    5.22420951946979   -4.91842304123203
C          14.38043399493487    5.79662946306531   -5.29872862653697
O          13.36367781325887    5.59412037185457   -4.70984127227915
C          14.65735528482535    6.62508830333117   -6.49616457519912
C          11.54079688161341    7.39250234729772   -6.02423991269449
C          10.23288613190239    7.48256999098654   -6.50528516766028
C           8.83074318628288    7.51398529555365   -6.11312787920397
S           8.19676747595874    7.49663912315807   -4.61598475437592
C           5.70717064209126    7.66936763996657  -14.15527345591434
C           4.43661712366381    7.61270774393134  -14.73420347452344
C           3.70980288551035    7.59496429451871  -16.00241451516896
S           4.32007963287426    7.65847704522817  -17.50915964396774
H          -3.16818000865988    7.14962104028505  -15.58960404030215
H          -1.80771273696611    7.25078831385920  -16.81132018655567
H          -1.56327020613567    7.23441875734659  -13.75249866893211
H           0.66093170740036    7.42833770653326  -17.08843509708657
H           7.48512748099881    7.68601856398527  -12.02521539325716
H           5.08692334110477    7.59400744892986  -10.10853446443797
H           5.89496394177900    7.58530586561346   -7.49475536168017
H          18.41027820441114    5.96210327845096   -7.50242002508980
H          18.62688811826024    8.11501174344622   -9.67044813810800
H          21.14933733675642    8.13647290055737  -10.67821386244982
H          24.33851299691903    1.31700804991753   -7.20691893357631
H          26.91373292235535    1.87427199265616   -8.78889230053152
H          28.76217969287752   -0.10420569923265   -8.37615904841428
H          25.76149605541534   -5.32778827629866   -3.86358688676310
H          28.27479099859080   -5.55208191861838   -4.87038975419441
H          25.97887815779342    3.91667855063949   -9.78785306582860
H          11.86458757890929    7.32769878796139   -5.00704343525661
H           6.65720512809977    7.73034467388573  -14.64487782381320
