86
 SCF done       -196.016267501387          0.000713539084
C          -5.58519446800692   -3.53264179767123  -15.34976857841578
O          -4.65352806947394   -3.19957817942319  -14.42619403214546
C          -4.31161256494518   -4.33545193122814  -13.82674763082964
C          -5.02008320516430   -5.42069599891986  -14.35633268473350
C          -5.85255231202931   -4.87662217285623  -15.35604924642320
C          -4.62816673145186   -6.65425881196397  -13.68576939519085
S          -5.17405278572455   -8.16280157359558  -13.95039399033708
C          -3.62407878467644   -6.21601563116667  -12.71437624915303
C          -3.44363261199874   -4.82381136285849  -12.80769684946301
O          -2.53883910074407   -4.39399690106099  -11.94758826125123
C          -2.09535969320747   -5.49787062740611  -11.26309932390711
C          -2.75215219913266   -6.64711061573546  -11.71602776905918
C          -1.08948934550759   -5.30143275122512  -10.28578836420710
C          -0.56160220014050   -6.31988588584210   -9.55987137506436
C           0.47256660446838   -6.28787411857195   -8.57928000905589
C           0.86570745810071   -7.51861270625804   -7.99401528850466
C           0.40199232118630   -8.88942751443626   -8.31884632883494
O          -0.45400411985390   -9.26915678301227   -9.06009875979682
O           1.16048434452370   -9.76503490703067   -7.58510838468739
C           2.07367685249197   -9.09393178267853   -6.81140536676034
O           2.92181915627231   -9.66527607788988   -6.19942877333961
C           1.82911823983959   -7.64596234459579   -7.00315817646690
C           2.50869510152653   -6.54827702361144   -6.43826920679081
C           2.22290462016630   -5.34310571257283   -7.10520512302851
C           1.24537440782946   -5.20006462095360   -8.09961812507309
C           1.23688087808797   -3.76165948559891   -8.46356534413103
O           0.57009303318704   -3.14245558457838   -9.23711463111517
O           2.19981827843385   -3.13340783719399   -7.71745218125819
C           2.85732326597420   -4.02195732170679   -6.91254608428133
O           3.79571861683406   -3.69873625604955   -6.25017017135660
C           3.35470484367309   -6.70417214111899   -5.29126512478615
S           4.81265839353302   -5.80554629136088   -5.03559148324026
C           5.17406022379723   -6.72664619906037   -3.62608862389884
C           4.17932561700717   -7.62678000402626   -3.30319745585238
C           3.11578791615261   -7.59344540681449   -4.24492979449418
O           1.92763572688866   -8.22284510343962   -4.16787966176828
C           1.74526420745792   -9.16398351563351   -3.11867353814494
C           2.89109665739935  -10.16928271210312   -3.05317169621846
C           3.99428843240267   -9.69886837808299   -2.10623499370671
O           4.21965789561552   -8.29274989612115   -2.11692564501053
C           6.38776765672836   -6.44568360661482   -2.88714913147408
C           6.68618219565301   -5.17475147719008   -2.38625192526041
C           5.79086868822672   -3.99335541275523   -2.29949014347893
O           4.65739172098496   -3.86465100985243   -2.63501189984130
O           6.49755477674343   -3.00956214542739   -1.65459533339087
C           7.74739035113222   -3.44432618415905   -1.28995811145774
O           8.50571384253936   -2.74833039814579   -0.68937504337783
C           7.88184270933859   -4.85111983014565   -1.74887123867148
C           8.91575533576597   -5.78954170258157   -1.54287080935665
C           8.60537177139378   -7.08002160731788   -2.02769937938498
C           7.39845225786532   -7.38204424126853   -2.65719821639474
C           7.45535990519441   -8.79951601264369   -3.08500855434315
O           6.64240300252611   -9.46339505434538   -3.64931034857584
O           8.68193274083970   -9.27958430218693   -2.71952786937153
C           9.44895500365063   -8.29928256424495   -2.12085696968638
O          10.58622252353648   -8.49582432388302   -1.83126925839875
C          10.15797720664676   -5.48481970853195   -0.90245571581565
O          10.82021095287727   -6.49827470841906   -0.25626285003900
C          11.95615207704497   -5.99008968188364    0.17285481018886
C          12.07799422307659   -4.63061393187048   -0.17958812113766
C          10.90698465689309   -4.30890814946387   -0.86450896585164
C          13.35477754475144   -4.10499389132107    0.29313981262683
S          13.95664743322053   -2.60563863246225    0.11604039565651
C          13.97335965456056   -5.25134401821886    0.95708211769554
C          13.12686087727296   -6.36822667336150    0.88300932547760
O          13.67364409926723   -7.42420592738730    1.47364868935111
C          14.88874987185884   -7.02044883386087    1.94181680268133
C          15.11430173716010   -5.68120010227604    1.64471750924055
C          15.69443032266276   -7.99532982534877    2.62382536644347
C          16.90509936207016   -7.76523920924925    3.12737259188073
H          -5.98383894455616   -2.73232657286755  -15.94085927000804
H          -6.54564881298942   -5.39010157048309  -15.98924833083240
H          -2.60096271062712   -7.64517798910433  -11.35943881023847
H          -0.76109584190821   -4.28112714570997  -10.16643273558062
H          -0.95529344636636   -7.30898833981799   -9.73939738297477
H           1.63258470567516   -8.63498302698462   -2.16337979701606
H           0.80192120167082   -9.65425004382607   -3.36704820697594
H           3.28823723435160  -10.29328368581620   -4.06268949122057
H           2.52750236532152  -11.13673521054873   -2.70936505034654
H           3.72961711307459   -9.90767621086983   -1.06568912825742
H           4.92963540365168  -10.21563408659634   -2.35082370764571
H          10.63282535200603   -3.36622469810221   -1.28847470968789
H          15.98457077263012   -5.11131306246915    1.89432235074271
H          15.23738725347255   -8.97207181649955    2.70343579908274
H          17.37944491752901   -6.80218719585877    3.05746812939878
H          17.45756403486337   -8.54133221245237    3.62552652735269
