101
 SCF done       -180.261558327171          0.000712307010
C          10.57287912156697   -2.61175421633927   -4.35562651256202
O          10.60572143171132   -1.40668535407402   -3.78797598321142
C           9.45144695200778   -1.23903613571136   -3.08991674125218
C           8.66972981427431   -2.36442150873356   -3.21793126337507
C           9.40114513170010   -3.25933620634592   -4.04340708448777
C           9.00602163825572   -4.54406088542859   -4.44907716727129
N           8.66850602650956   -5.59164407708632   -4.76864700563187
C           9.27090798242665   -0.01446362177426   -2.37704514046292
C           8.19018339508956    0.28441244722600   -1.62685556331535
C           8.03857510819029    1.48646098942744   -0.88419863140397
S           9.25256124395181    2.73274597942078   -0.90972701121684
C           8.37056099704520    3.69281894113295    0.24397201257816
C           7.19166336549717    3.06236000718812    0.60885336322718
C           6.99749827014522    1.83178375468234   -0.03800014352270
C           5.78402208084302    0.98321833726150    0.18577855563401
C           4.65105343483004    1.79216008281252    0.82255844791753
C           4.03438753210140    2.73870911177333   -0.19881839368177
O           4.50982376455091    2.98023014971260   -1.26851886663865
O           2.88484258689462    3.31850237225415    0.19220341933159
C           5.17665370341718    2.60932662994047    2.03109647190959
O           5.70122601568693    1.76827832508969    3.02410424793771
C           6.19195014930529    3.65340711590776    1.55492737111842
C           8.88639597452154    4.92383360031273    0.72442407974403
C           9.94489094245239    5.56768018771796    0.18064518983142
C          10.53657537910601    6.74221282535547    0.71097283124286
S          10.14563903817974    7.32290961268909    2.30289403982881
C          11.31553803730680    8.61053681585027    2.18450490912507
C          11.92484837712875    8.60890599116476    0.93669555352643
C          11.50085112373270    7.54762552418191    0.12200309537485
C          12.00687581039606    7.32226077483377   -1.27206198046888
C          13.22700587586088    8.20001946043986   -1.60170520904258
C          14.52413536025787    7.58349205837861   -1.08972726235828
O          15.24990174479163    8.07987024363711   -0.27738500498166
O          14.83794484873220    6.40470816642087   -1.64829883164235
C          13.02582264504407    9.63254684831429   -1.06634088050560
O          11.92417917342892   10.24927036695727   -1.68642935082805
C          12.90460757846046    9.63298675134433    0.46059413890560
C          11.53124667690120    9.40232031118879    3.34383668215964
C          12.60970687538248   10.18199574901524    3.59352198074246
C          12.82955405834250   10.87449574652103    4.81276792035701
S          11.67103222684202   10.87454005706795    6.10499491849833
C          12.71428278036285   11.83531842146998    7.12191020425295
C          13.89458263739166   12.15131739153226    6.45969525001262
C          13.95834416581282   11.60028259268689    5.17027462778607
C          15.13923270406064   11.78053478900566    4.26376760955934
C          16.38751843993075   12.21792423864333    5.04662298874333
C          17.00097777442710   11.03782082412247    5.79320546235997
O          17.05667714874033   10.92811645635089    6.98240981371577
O          17.51272028044318   10.08413162484533    4.99819094191315
C          16.04018764909449   13.38625865842663    5.99119738228988
O          15.62694292661644   14.51183591704971    5.25124885870698
C          14.99952505099621   12.97513330330892    7.03781030943152
C          12.23723849247956   12.12219574448343    8.42715216674008
C          12.90051308562365   12.70579125754417    9.45406094128221
C          12.30418710910789   12.90893252546204   10.72867079759309
O          11.04210120682423   12.52496866694668   10.99829471953293
C          10.76608412415138   12.84044952402128   12.28992457854453
C          11.85943929134476   13.44014932006333   12.86906485922653
C          12.85881514059460   13.49046516365262   11.87038065441354
C          14.14760153495033   14.02376927659999   11.98382502403613
N          15.20101893528341   14.46928563377856   12.07589256368263
C           9.46098318175076   12.51240318346162   12.79748967114885
C           9.04620732111117   12.75067658239431   14.03883647334597
H          11.41155599186429   -2.91623093716394   -4.95029774695990
H           7.70568931857914   -2.54426747169820   -2.79018033471521
H          10.08652957727812    0.69129383031452   -2.45613433028749
H           7.38173623620820   -0.42786193856542   -1.54838407388007
H           6.03161105581150    0.13280235544268    0.83007748693859
H           5.43658872763391    0.58582179212241   -0.76996132351261
H           3.87698024609443    1.10352598737335    1.18184595713047
H           2.58016103811203    3.01592665829879    1.05770370351770
H           4.34102851741719    3.12234954516567    2.52429469371759
H           6.54477105222721    1.41619333009585    2.71626463137968
H           6.69395466461403    4.07369696222245    2.43032139847765
H           5.66290642637533    4.46919862141079    1.05263781806118
H           8.39222100996984    5.35785597499778    1.58355709063806
H          10.39109202032886    5.16178831961171   -0.71798267877150
H          11.20564884349324    7.54817773672977   -1.98463632792715
H          12.25038100478158    6.26233249693485   -1.39747453951109
H          13.31848721316457    8.26691022965652   -2.69411639887470
H          14.20303636909229    6.11939558794970   -2.31926527026522
H          13.89124084764843   10.23844707020388   -1.35558300490454
H          11.11574298355414    9.87297813462044   -1.31862686247927
H          12.59272674039705   10.62933507974628    0.78397576090777
H          13.89267291524467    9.42238755081145    0.87504235501462
H          10.78484710812678    9.29748488984192    4.12196525628437
H          13.39541516415295   10.26507219525278    2.86135782942660
H          14.91115931659249   12.54105227248459    3.50810658896151
H          15.33412279036352   10.84730154700676    3.72774594492209
H          17.13771721435045   12.58156825378996    4.33233510382389
H          17.44419452802392   10.28901683971583    4.05590678535003
H          16.95272076456945   13.70496736202875    6.50553846506885
H          14.72106595669432   14.36731264340095    4.95435863925269
H          14.59721158499551   13.88602640226624    7.48878736038457
H          15.50290725222182   12.39846591472896    7.81680193364513
H          11.21956753205873   11.80102773224368    8.61424555875629
H          13.92459377928167   13.02977629600741    9.37902067179623
H          11.94804428225208   13.80011982380410   13.87306898198038
H           8.80901784025027   12.03762155098814   12.07681092197523
H           9.67904580279282   13.22074034140101   14.77120167408103
H           8.05594380986189   12.48005459310218   14.35844918124793
