84
 SCF done       -150.294696482028          0.000539299705
C           3.65256745116084   -4.14465422936381   -1.18064478762826
O           4.48821851766049   -3.20362067226914   -0.75228087936565
C           4.72461157735563   -2.34689416583911   -1.77994406685830
C           4.01680467251729   -2.75890646178896   -2.88928594670356
C           3.31828874739780   -3.93061607315529   -2.49843841917619
C           2.46485759701759   -4.70790820212761   -3.29697541313805
N           1.77121439565607   -5.33017749751874   -3.96423043348801
C           5.60489291536525   -1.24722220495721   -1.55284285685654
C           5.92601404534279   -0.33136058263096   -2.49612410050760
C           6.81190215370838    0.75032792740532   -2.25202476420330
N           7.14112866775510    1.69629830222411   -3.20396698791623
C           6.61037653773375    1.79418735412470   -4.54012711507697
C           5.20248959202148    2.38616661705104   -4.55276967120521
C           8.04528474176860    2.64584899523406   -2.71167166724645
O           8.48058387063642    3.57325670619356   -3.38479327063263
C           8.28749801036031    2.24314725957737   -1.35639265622405
C           7.51750964190436    1.07623781777966   -1.10017991765809
C           7.75368654640453    0.68225399183308    0.26878382424834
O           7.32693340379417   -0.23638638761142    0.94286455103899
N           8.64787556156539    1.64739909247101    0.76157242183992
C           9.17237443815898    1.56699820688617    2.10139305164976
C          10.59065995605984    1.00127185623504    2.12453173841127
C           8.98237547287429    2.58390967585800   -0.19250094670708
C           9.84405019957278    3.67250076217475    0.03528495984135
C          10.16115357787732    4.52694068163105   -0.98155704790871
N          10.94099749805033    5.60328368309941   -0.85805152007466
C          11.23231715783301    6.42912958334523   -1.99499901786230
C           9.95415893751914    6.97740865899185   -2.65377010038488
S          10.22326628552379    8.74897552954222   -2.95591723142626
C          11.17947915053053    8.85139775113839   -1.42441951603873
C          12.07001872198724    7.60412991708536   -1.45465259175307
N          12.54820594264699    7.25173176572832   -0.15119074370937
S          11.64722967257367    6.09822905201586    0.71557061963364
C          13.44537493325283    8.00813300842639    0.54074310091473
C          13.51475865636234    7.69028764794005    1.89499732758036
C          14.41152892961841    8.28320420252346    2.83843176174228
N          14.35348889667892    7.84364738691263    4.11232331249373
C          13.48318496617522    6.90909294076394    4.42762782779589
C          12.59296572968213    6.33970937257327    3.51774019904498
N          12.62907523160616    6.74911330792055    2.25753307849255
C          15.29976303978641    9.28212736333018    2.37911721672633
C          15.21479653495732    9.62658070670607    0.99688344261307
C          14.30639297083679    9.01954313517728    0.06448544273401
N          14.27872054435989    9.41045626979666   -1.22028147894216
C          15.11398323719427   10.34291651885665   -1.60798291690009
C          16.01485972183378   10.93411626298187   -0.71023422115254
N          16.04255526454800   10.57909968158573    0.54699356574733
C          16.26047716572503    9.94861652362960    3.19667558894838
S          17.33291372515030   11.16680950868130    2.52201232861376
C          18.12440201535353   11.46628314659651    4.01857528784894
C          17.60844658196002   10.68257122196593    5.01658568001025
C          16.55722879936944    9.82636901046471    4.54783732943092
N          16.15171155455197    9.12049916927060    5.62687818615914
N          16.84699999641597    9.45068550135916    6.72750897758661
C          17.71547785608904   10.37068142364334    6.40170463257799
H           3.35464270877188   -4.91277231644412   -0.49407157725948
H           3.98773370420881   -2.30086959097087   -3.85608773136423
H           6.02107914719115   -1.17512253650451   -0.55741820060022
H           5.50345361462678   -0.41590573527955   -3.48669423891708
H           6.62271425401276    0.80891337713808   -5.01550071482118
H           7.28986400713893    2.45611375155774   -5.08504774493575
H           4.51662733933448    1.77228593153376   -3.97296825891150
H           4.83785830071308    2.45238919131589   -5.57436096417127
H           5.21831820072648    3.38480483932126   -4.12297321611518
H           8.50149726778353    0.89856156909232    2.64867078190360
H           9.14188925415246    2.55716537155530    2.56612610110951
H          10.59637928747979    0.00322130108041    1.69351639515638
H          10.94899586076297    0.93973484852615    3.14868333478222
H          11.26802573425142    1.62987835444783    1.55060172393498
H          10.25041814782602    3.83358999631676    1.02160407999529
H           9.75981810858448    4.33986315480236   -1.97101727347868
H          11.80899244810055    5.85520200851950   -2.73170894710419
H           9.10403306267199    6.86986302869257   -1.97786545418341
H           9.72118228044824    6.48741326618734   -3.59496382866890
H          10.49805835707095    8.82887413433092   -0.57064921043294
H          11.76019988788596    9.76963512484779   -1.41711039296143
H          12.93306036076768    7.81089114011804   -2.09552210025957
H          13.47778330708553    6.59303052887602    5.46148203554102
H          11.87060956369391    5.58565730802665    3.78145338983769
H          15.06221643058005   10.63445097853901   -2.64727073010484
H          16.70779821337048   11.70584874124267   -1.01282178731197
H          18.90872609639701   12.19399725075305    4.07497758349674
H          15.41780346022657    8.42658027756262    5.62379325840716
H          18.38091958437376   10.78308668331622    7.13260852046840
