87
 SCF done       -162.590018029454          0.000676332015
C           2.23533949479505   -2.92715217481986   -0.55239575328902
O           3.35442642300972   -2.25676393438470   -0.80149263497171
C           3.45780863039426   -1.25175767262946    0.10702271315287
C           2.37011888975078   -1.28950544258183    0.95494056167276
C           1.57385831488955   -2.38170552948466    0.52540354393739
C           0.35973434002822   -2.81220171846948    1.08438282489326
N          -0.63012595298466   -3.15053518488044    1.55255157750517
C           4.59079420425633   -0.38960131457491    0.02924449986094
C           4.80771002366788    0.65467655965478    0.86367158735123
C           5.94342969538818    1.49842305280097    0.75509433918132
N           6.16981297802217    2.58213523676485    1.57267721650130
C           5.30612644524704    3.07680334620039    2.61563639652378
C           4.12840694997467    3.86818958025373    2.05070887203516
C           7.36355923918506    3.25001996068765    1.24604067723166
O           7.74576354591671    4.25406149542542    1.81700407945051
C           7.91266711439929    2.48291014341284    0.15460412284075
C           7.01557426486952    1.42508233391026   -0.13279681053956
C           7.55066905578807    0.68098143407389   -1.25182841314788
O           7.14020821404567   -0.29332623129976   -1.85448491968434
N           8.73803792107853    1.34987390983665   -1.57943551316989
C           9.61824523318164    0.85828371552293   -2.61025469763432
C          10.81091993400891    0.10600199288709   -2.02458872861214
C           8.98016762658920    2.42090148227520   -0.74457744801119
C          10.09711266554112    3.27049753561713   -0.84583014489623
C          10.35718991658786    4.22653954772809    0.09498566168521
C          11.41040879129493    5.15046179840427    0.01249460317286
S          12.23506636167203    5.42211188049162   -1.49731373244167
C          13.09263062227100    6.78914765925377   -0.88576844281940
C          12.67118565796521    7.10003600284197    0.42194229310757
C          11.81117348136886    6.09993201408534    0.97315478214211
C          11.46498155593671    6.18034786795510    2.34555713344432
N          10.95086899275347    5.08216597408027    3.09809816596944
O          11.16817986637767    3.95428596768757    2.69210104770130
O          10.39691059642535    5.33130578827029    4.15179954119504
C          11.78396691428220    7.32734981822018    3.05352263251232
C          12.42169942360097    8.39451889600358    2.44860646794100
C          12.87124091570689    8.31722343992357    1.13346408621098
N          13.43847005105621    9.39931018348836    0.55147586937311
C          14.14898836714490    7.34091341654238   -1.66525705593268
C          14.12288759859241    7.23223606631869   -3.07915988062441
C          15.15322709097070    7.77374297259599   -3.91516682216662
N          15.03877331834446    7.64404812898069   -5.24971938812165
C          14.00367348751353    7.01065514794869   -5.74624238811020
C          13.00251686130667    6.47785465520441   -4.92343768383135
N          13.06826111374447    6.60432602095470   -3.62511184388503
C          16.28559018486867    8.42338717461570   -3.34337502724106
C          16.36040957204292    8.40952751374348   -1.92147806457504
C          15.33569208034286    7.86271086052856   -1.09156839778233
N          15.52441510791862    7.77961820654205    0.23869443707969
C          16.63219427097703    8.25105152721004    0.74701143448812
C          17.60069203920909    8.87713041914802   -0.05423331917011
N          17.45465017815626    8.93305503304154   -1.35146274022124
C          17.32773416784723    9.04311038155424   -4.07338875473512
S          18.68893206188389    9.78881736287986   -3.23436479077643
C          19.43961380021118   10.31700694613288   -4.68650286823953
C          18.71151885097779    9.95133195022776   -5.78961339808344
C          17.52278506524408    9.23100269779238   -5.44098068429246
N          16.91408679999606    8.94226338796666   -6.60855938153117
N          17.60562274466712    9.40792759536033   -7.66061902124876
C          18.67382074364839   10.01189680275106   -7.21126129706747
H           1.99085962957506   -3.76256504784835   -1.17918839485106
H           2.15559749255991   -0.63672130739860    1.77553172525592
H           5.29525742777865   -0.61200142341214   -0.76133726110214
H           4.09860044388281    0.86892020737061    1.64974429789426
H           5.92590343341344    3.73388749254110    3.23250533407886
H           4.95715654736631    2.24275125720555    3.23094909521726
H           4.49485855030285    4.72055158537544    1.48405189518242
H           3.50530096986365    4.23279371762303    2.86271413197999
H           3.52204248320907    3.25020277226757    1.39167762382519
H           9.95389060499102    1.69276820214736   -3.23315866230704
H           9.01733076662636    0.17965927598439   -3.22235309552364
H          11.39156840828009    0.75096014964628   -1.36899658697477
H          11.45246453008440   -0.25201694941680   -2.82528583055923
H          10.46315113402860   -0.74793422528890   -1.44854992789050
H          10.76972445590826    3.14999150925794   -1.68386445817293
H           9.69316592247160    4.29445059040601    0.94341647216874
H          11.51131211204546    7.37471334407302    4.09693995036737
H          12.59357990745119    9.30195650011725    3.00709302778692
H          13.46073802233835   10.26593023601716    1.05841046421051
H          13.59769423995550    9.41709606031922   -0.43869773569874
H          13.95785405663529    6.92431459067993   -6.82373689845333
H          12.14406082530416    5.95730924788155   -5.32303010486442
H          16.76146689164777    8.13559713306563    1.81386054814587
H          18.49828136937354    9.31721776071084    0.35542375314962
H          20.36465944885813   10.85701246775522   -4.64783943688373
H          16.05708010756672    8.41277157521962   -6.69402772730843
H          19.37482631450020   10.46369959497005   -7.88307332000546
