84
 SCF done       -149.035066738277          0.000886465058
C           1.76046595397329    7.36586257511250   -4.19712107244940
O           2.90657345138903    6.78987992540831   -3.84539227133499
C           2.65076364013415    5.94123815644941   -2.81351928778613
C           1.31281481904365    5.98006088704719   -2.50189161232839
C           0.73208837918422    6.91100507253550   -3.40506717172899
C          -0.61130027474348    7.30604974781853   -3.46128026648303
N          -1.70855779331645    7.63969910101324   -3.47471381728509
C           3.75030675552416    5.19090448266600   -2.28393045964264
C           3.65669608489775    4.30769210360640   -1.27580419252572
C           4.75057157220098    3.48125456177219   -0.80762767929094
C           5.79187518968435    3.14605982697430   -1.68960441215901
C           6.76901086556560    2.27287929313809   -1.28040019353350
C           6.72382573985644    1.68282851394639   -0.01069629876017
C           7.88399761284808    0.77050701096796    0.11386328776954
O           8.21466941189636    0.06763354903839    1.03540647510463
N           8.55731972679278    0.86753540455785   -1.09576835971980
C           7.95947095641430    1.74745912452078   -1.98781761749610
O           8.36442682267630    1.98895128600909   -3.09690690781825
C           9.78199431149980    0.15300449477147   -1.38531846541716
C          11.00696348546043    0.98748918574406   -1.02811523811312
C           5.71161216918635    1.98437738162844    0.86566933424417
C           4.73118596360733    2.91838201902331    0.48998393258249
C           3.76107814856190    3.26957423252677    1.50595333043935
C           3.22332321761759    4.48316800913857    1.73024727301940
C           2.35255896660755    4.71336559439806    2.83912665401109
S           1.91018594241019    6.35660582130403    3.34050621859406
C           0.95037905974100    5.81782886446729    4.73656859051252
C           1.03097400609831    4.45300209780757    4.75516583732666
C           1.78285878001625    3.85019948393148    3.71990576259739
C           1.42654188083708    2.50202868865999    4.30707316524194
N           0.57087082584061    3.23740043080918    5.26362053138324
C           0.37804993941008    6.68717767402806    5.73889212892321
C           0.47980366286511    6.22638161766290    7.06370162170550
C           0.03352346971080    7.01589369443985    8.09253884184726
C          -0.49050096129383    8.29093317224702    7.84407181090683
C          -0.84566396677599    8.90069447075975    9.14442234083172
O          -1.31358974004667    9.98442778581584    9.38683082005384
N          -0.51627329325454    7.94559393820717   10.09949128369576
C           0.01290013763623    6.78590972688945    9.55494946345279
O           0.36911918464574    5.82151821519204   10.18546671680581
C          -0.75416683332703    8.12433907711182   11.51557551358993
C          -2.15893718353844    7.67202523882003   11.89890167068423
C          -0.61394229383250    8.75619892381424    6.55815461757471
C          -0.22602619697874    7.94026483468486    5.48129293394897
C          -0.56023164396816    8.43066702621975    4.16265387070088
C          -0.84922414873699    7.67988726828204    3.08387201612935
C          -1.26471977041307    8.22821948491652    1.83505374866145
O          -1.63202955228672    9.51446800492650    1.70540108500523
C          -1.99114564142712    9.72204920243760    0.41369572235684
C          -1.84556630107692    8.56329687355138   -0.31098045450492
C          -1.37208508267242    7.58971418475213    0.60055955565389
C          -0.97533073747856    6.27669574588393    0.33435848639781
N          -0.59601902034437    5.21382924812312    0.12100268325544
C          -2.44485347734195   11.01767396232961   -0.01829513814426
C          -2.54549995310763   12.07757248583765    0.77923594372161
H           1.77195698634131    8.07053518670738   -5.00546051034734
H           0.79836305771544    5.43444460101373   -1.73733714907253
H           4.69765827285358    5.39868886726146   -2.76137833473793
H           2.70395525891718    4.16424547273618   -0.78549093209459
H           5.81206320523586    3.54219685540272   -2.69216202984593
H           9.78113384679537   -0.08145378647999   -2.45267057821445
H           9.76513778328834   -0.76996957378283   -0.80080720002465
H          11.01043427662279    1.91190541007489   -1.60102642373544
H          11.91097550659053    0.43049787653211   -1.25720642682560
H          11.00242685648247    1.22763447393890    0.03266792070706
H           5.68215769660518    1.53044364675324    1.84468024844536
H           3.53450449110756    2.48091749699097    2.21268200858991
H           3.47764127998561    5.33706354447724    1.11975568955793
H           2.26351802646816    1.96663921896664    4.75912780355915
H           0.85254412807802    1.83835956201175    3.66038863215855
H           0.52198226260464    3.01306523131459    6.24580201298864
H           0.93159507973392    5.26884674153769    7.26992358533507
H          -0.62243635195139    9.18572676756524   11.73929059205337
H          -0.00467833856979    7.53485849800930   12.04903612686659
H          -2.90096245350831    8.25774413151222   11.36116473495359
H          -2.31166070871820    7.80767835897396   12.96575115242739
H          -2.29396457548081    6.62032803408447   11.65639526061507
H          -1.04280108335746    9.72884473240661    6.36994261636890
H          -0.67980765475783    9.50342989420478    4.08086129560699
H          -0.79697594084250    6.60179078165228    3.10838560331755
H          -2.05014263906570    8.41976847771603   -1.35274846539861
H          -2.70655145116579   11.07164591837037   -1.06522040139577
H          -2.28552972409783   12.02064773816933    1.82263245641698
H          -2.88956335995878   13.02807705993318    0.41300835930539
