104
 SCF done       -188.899920342208          0.000577909087
C           1.24639909607295    5.05463172522656    2.58156708449597
O           2.48755048493330    4.58430133444764    2.44792452047089
C           2.66961062181657    4.26293519416432    1.14008639633398
C           1.52620138815016    4.53000055159920    0.43223330515762
C           0.59483833554723    5.05084333577583    1.37282485062867
C          -0.71801313307004    5.47828759060642    1.11348538682105
N          -1.78437323597480    5.82788659735079    0.88340913050075
C           3.93220791977711    3.73407253843068    0.69345581496784
C           4.99416046071995    3.60933963312037    1.49080158796272
C           6.33826863784107    3.09234955885291    1.07824021499752
C           6.41823796378168    2.81671241256454   -0.42431874600407
O           6.44270729738421    3.62722012421700   -1.30027507719469
O           6.47431384631567    1.49588720401342   -0.64960476323026
C           6.37530473282102    0.74365247340525    0.55139704508149
C           6.75706009779284    1.73206586485867    1.67220622350780
C           6.22704018729636    1.36109845937524    3.05277488915791
C           4.76234465625410    0.94709352163808    3.05271660190348
C           4.46536760058503   -0.16376665438220    2.05977195478303
C           4.96544660046017    0.11293099741142    0.63555173239576
O           5.00715067172202   -1.17227886029394    0.02518505145652
C           5.14982758195408   -2.14526726369001    0.94055054914870
O           5.31138826957516   -3.29215755136545    0.66503710748111
C           5.09737229296011   -1.52873783058851    2.35078777248406
C           4.33608665780189   -2.36190862700050    3.32535211245843
C           4.90535483267561   -3.04531616636985    4.30672425576039
C           4.18731691069556   -3.89115943614260    5.31790828140145
C           2.69432058025529   -4.01815801859020    5.00677060365725
O           2.19074427177317   -4.65655611834985    4.13542857978173
O           1.97739953287065   -3.29680045331650    5.88789335003992
C           2.80850169319860   -2.59817793518968    6.80077465852630
C           4.15397945636498   -3.34485189184297    6.76031812866252
C           5.33355497930013   -2.52377639611875    7.27032515358158
C           5.40177200723843   -1.11524760471543    6.69324622155045
C           4.10238977288042   -0.33844419700402    6.84688622854005
C           2.84888457985162   -1.10445759660521    6.40374239696001
O           1.77664526664806   -0.44012429700565    7.06349732698963
C           2.19331911161762    0.18263953146225    8.17246926767143
O           1.44368402302575    0.69929246432183    8.94656977374071
C           3.72149116837129    0.11559198765524    8.26375487338774
C           4.38009036903306    1.40842190152424    8.63988258332981
C           3.78833641115032    2.41541248573059    9.27870233219321
C           4.42845143098066    3.66027543250889    9.62633520899096
S           4.14099897134031    4.28579198972338   11.20944868880380
C           5.21394715731695    5.62986600181932   10.98102280254536
C           5.72404152515233    5.62716630167981    9.68376041222271
C           5.28446256461142    4.49104211857331    8.91290112773384
C           5.68055570535160    4.40204182886704    7.54668533514445
C           5.23308007729810    3.40418914115867    6.65900724393399
N           4.93204541181083    2.66291887002606    5.83475670350195
C           6.49979314497987    5.37177094426112    7.00124267752440
C           6.89397584215592    6.48825330165598    7.74177138386095
C           6.49283647340088    6.64334587972609    9.05308120445406
C           6.76306697307994    7.88381946305349    9.67203834305556
N           6.96151528482151    8.93323323262261   10.09012349251266
C           5.55110136890205    6.46822639589319   12.08567137192054
S           7.19908771685772    6.85556685881950   12.44852289950989
C           6.78646520618634    7.75281272031361   13.86151829043233
C           5.41006467603019    7.70244303582795   14.09164024534131
C           4.70505698904806    6.96788044637509   13.07770229204282
C           3.30318929561953    6.85399556573853   13.13622126745431
C           2.62232599263062    7.39962778211916   14.19495405456580
C           1.21403666824565    7.29316932369864   14.26406996060125
N           0.07298650847488    7.19921973532488   14.30382594599205
C           3.32984526454460    8.06314798156572   15.24803853272716
C           2.60978016988260    8.56543923893184   16.35660621067470
N           2.04463035303894    8.97818265241204   17.26379595774200
C           4.69307638182536    8.21264874201751   15.19207317423403
C           7.84551490762477    8.41650261476646   14.57195728141008
C           7.72627094849402    9.51028603423431   15.32250186639605
H           0.92328498088442    5.35789155248805    3.55808118339180
H           1.36230045411837    4.38552223918155   -0.61557386681298
H           3.96711828424681    3.46175505428241   -0.35083317513462
H           4.92617110192289    3.93775098908150    2.51973814060751
H           7.07387083803048    3.86329864091132    1.33010737866977
H           7.09959442228349   -0.07459373339910    0.47039181980341
H           7.85239131580679    1.73776125778155    1.72473465809228
H           6.35524506387003    2.20509388145122    3.73116280976484
H           6.83631793244301    0.54228307432321    3.44217479791599
H           4.13718505204725    1.80505467865959    2.80973103475221
H           4.48837790215760    0.61576738201137    4.05359847517761
H           3.37951103974024   -0.30538483369304    2.00660070578150
H           4.27276219897826    0.72847516848194    0.05496731126479
H           6.13691924381733   -1.42693447128010    2.68090053059076
H           3.26577582970212   -2.39028057910765    3.17658181727092
H           5.98383166846944   -3.05331172158874    4.40443625669473
H           4.63755783853292   -4.88763718114621    5.28936371335967
H           2.33173512070736   -2.67015296105362    7.78471115810494
H           4.05023646057111   -4.21569666684485    7.41841957918721
H           6.25967255741885   -3.05442196448981    7.04465422239611
H           5.25401931243982   -2.46451193841050    8.35855651240412
H           5.63930639967032   -1.16425956362519    5.63134598279728
H           6.20450856532217   -0.56390392239046    7.18653621211591
H           4.17218476548534    0.57149078567805    6.23920612471954
H           2.66629393799729   -1.02718012966021    5.32843891748514
H           3.97522114744021   -0.65019121815254    9.00803355222196
H           5.42133464809895    1.47663901916999    8.35093678836115
H           2.77367472655942    2.29922013132063    9.63513404307120
H           6.79996938851456    5.29021342996039    5.96723905721649
H           7.48030638417370    7.26170356269040    7.26995285448274
H           2.76298928077970    6.33986690165704   12.35566511149491
H           5.21174037384428    8.69513978552303   16.00461617201477
H           8.82759739505264    7.98803411969028   14.41341179432845
H           6.79342891831360   10.02879648611099   15.45454844996418
H           8.58525844136034    9.94143852149833   15.80540113960270
