103
 SCF done       -192.613612830482          0.000348734004
C           4.02377284605836   -1.57545718762129   -3.21161471144761
O           4.80666799504474   -0.50718691305739   -3.35768118200842
C           5.05693581334375   -0.00255547498668   -2.11954920234962
C           4.41768632557732   -0.76972835558783   -1.17030687653043
C           3.74383960689831   -1.79517456623353   -1.88303881184799
C           2.95140972587605   -2.82247031858397   -1.34430647539168
N           2.30355009048164   -3.65351061807702   -0.89465009634079
C           5.87128076709959    1.15497752991102   -1.95770553006080
C           6.44279763362517    1.82384482041013   -2.98805977514712
C           7.24806309609898    2.97703246650222   -2.84971314620960
S           7.58631397158674    3.67737903530618   -1.30694723068270
C           8.55388728030969    4.94981990565916   -1.99463325274077
C           8.61240398003705    4.82110391732053   -3.39710464066898
C           7.87204212832070    3.70639584098049   -3.88214790174780
C           7.83032810387560    3.45802226517026   -5.26173585646708
C           8.50117194772090    4.27770069965425   -6.14213866929208
C           8.43625783653090    4.01605540762071   -7.57935239034012
C           8.36268915579574    2.80886108916368   -8.12367838866162
C           9.24621076786882    5.39103885003104   -5.65241283560425
C           9.99526100040965    6.27184182764159   -6.60256846228521
C           9.29402803450006    5.64604401619640   -4.30546794483520
C           9.15490095626376    5.94611297413936   -1.21417122311853
C           9.04194609329910    6.01097770125037    0.14425765805473
C           9.57691582600730    6.98044376291085    1.02898531465377
C           9.29058157252594    6.84645768347063    2.41450502766088
C           8.50557919128841    5.79679774775618    3.09824639839914
O           7.91366547607358    4.84656579445710    2.65605741816279
N           8.53009647287004    6.11885300801028    4.47028055491257
C           9.23551492523718    7.29476257989621    4.71763238267467
O           9.39166615545849    7.82256345315420    5.78671048176498
C           9.72830073391423    7.73994718183844    3.38878382428080
C          10.50142555178962    8.84909038048620    3.09001857294954
C          10.80528913625210    8.99207735079166    1.74688128399582
C          10.38164038180092    8.12120812878947    0.73677686310156
C          10.94142627982373    8.66140856812226   -0.51926917148797
O          10.87278837800136    8.28644035170415   -1.65453575607667
O          11.65415804191906    9.80194206548911   -0.21635652394003
C          11.61635979785076   10.06382516000823    1.12580668496631
O          12.15881673051207   10.99826829205365    1.62691531729558
C           7.94438854136078    5.27334015801641    5.39843216183471
C           7.72646179046136    5.58620459464608    6.68439499866359
C           7.14830147771864    4.70532844935676    7.65637484636883
C           7.38065412482944    3.36436553685910    7.91225909771238
N           8.25677273935961    2.47198220969936    7.27359297746059
O           8.73606559886946    2.77070883315745    6.19090112660010
O           8.50953320554759    1.43189242586025    7.86087483461643
C           6.67355974105804    2.97811579205052    9.11266621176818
C           6.04407822266409    4.06319733824833    9.61626720851412
C           6.29389643119405    5.18664339747804    8.74877917433784
C           5.71399016335568    6.43604768793896    8.82257697236738
C           5.42389025927155    7.30769085263259    7.72719901913839
C           4.54802928064695    8.25815259612095    8.14771894297336
C           4.30484732743571    8.09273248077191    9.55395559615468
N           3.61050239118540    9.05526013049774   10.29291039480504
O           3.71049245188519    9.05645736918180   11.51478908875686
O           2.94253339066627    9.86977582552113    9.66977198228894
C           5.02896299079759    6.99056462284272   10.00802345983100
C           5.21661431228206    6.52543621312468   11.32293487312399
S           6.79822740986055    6.00466710595618   11.84385192050057
C           6.28934604515796    5.79805350828893   13.47669206351645
C           4.91942034184334    6.07821344623666   13.61905234926233
C           4.30992087014185    6.48326811058608   12.39711024901421
C           2.93134830207489    6.71759324393350   12.35393897866119
C           2.17767048130197    6.65573186367011   13.51008783825347
C           0.74930056808203    6.95336996838614   13.45505084290632
C           0.22536128841359    7.88845652782556   12.67243125850423
C           2.79323127435391    6.29963306825900   14.74315533110754
C           1.97871494079588    6.24967406024779   15.99758346846272
C           4.13221551508138    5.99911262331808   14.78064144220498
C           7.19941937210542    5.39828371992579   14.50276234902560
C           8.48278384586282    5.08796947643373   14.30164302531820
H           3.72192331414163   -2.10661790731884   -4.09305064622049
H           4.42579421235775   -0.62565055146279   -0.10981271344939
H           6.01630010265707    1.48635668304636   -0.93962697890354
H           6.28023109412306    1.46454470710991   -3.99476116629971
H           7.25075633759140    2.63100555498025   -5.64056497812579
H           8.45857331751462    4.88628519170979   -8.22088822767649
H           8.37747915570375    1.90958666819896   -7.53057066440040
H           8.30763911599584    2.67357204934902   -9.19008603516725
H           9.30398792010837    6.82354278681295   -7.23992815141031
H          10.64494124995652    5.67947584277412   -7.24500183971022
H          10.60161960616571    6.98996135428674   -6.05711934594038
H           9.86201498404875    6.48643432355664   -3.93681925478376
H           9.72378881085105    6.68696450083301   -1.75158948425190
H           8.46266456649006    5.23534427548580    0.62716021998794
H          10.84345784096999    9.54445946355049    3.83772894615386
H           7.64254842719620    4.33270800778912    4.96072849498190
H           7.97653638052325    6.57501558716652    7.04362436372336
H           6.67035363497749    1.97565691334778    9.49538597885728
H           5.37028131829130    4.07205382284356   10.45045334180776
H           5.75878352791796    7.15785810477898    6.72045127747577
H           4.09940526875371    9.04045747789000    7.56473761541076
H           2.44366050449980    6.90536313863207   11.41137108981952
H           0.11060137044728    6.37988199701544   14.11345945196447
H           0.83946089695334    8.51587618074021   12.04896951404201
H          -0.83297044770760    8.08495654338923   12.65628110347094
H           1.44549543562340    7.18774333629537   16.14091226330148
H           2.61328829207351    6.07190681493310   16.86193487845456
H           1.24113161693008    5.44871755348508   15.94441490566114
H           4.58658977086756    5.70025731390525   15.71335027628690
H           6.78506413427665    5.35367111309813   15.50062362858277
H           8.92255469253756    5.11732547905486   13.31841429980290
H           9.12420904334066    4.79514601109877   15.11315202271841
