81
 SCF done       -161.877930778966          0.000734600878
O           0.71161050453056   -1.41869819549950   -1.19825022957614
C           1.11891778244162   -1.29105384256863   -2.32650384547325
O           0.79198970732838   -2.16706921640887   -3.27838989175912
C           1.96382240266570   -0.16366374674538   -2.75585326769690
C           2.50785026405990    0.84899595950708   -1.97363299541816
C           2.59476919513372    1.08446143457028   -0.56428531330480
S           2.47541987273162    2.74448472095517   -0.03906302698789
C           2.68965887011735    2.27244799852481    1.59205171886099
C           2.86994285481579    0.92954766004049    1.73086458930352
C           2.82950624122280    0.23748337007960    0.49323370216693
C           3.06963885006110   -1.23060278978575    0.40890344696257
C           3.76751001845129   -1.74374288060552    1.66445969863225
C           2.99897648690662   -1.26678888264026    2.89928795595668
N           3.59515800752379   -1.92411858356821    4.08520793008619
O           2.96258415861963   -2.81096054591893    4.60278578002210
O           4.68868490961470   -1.54920347953148    4.43612265473643
C           3.12065615267072    0.24743760147009    3.04031920901124
O           3.04272230677841    1.79996999556779   -2.76082650205573
C           2.88168263127473    1.43583394274153   -4.06280369794145
C           3.35993761349543    2.28150111239305   -5.10605890343914
S           3.24346888720985    1.78073487793051   -6.76689399787833
C           3.98356058441449    3.25923845208305   -7.29833968287167
C           4.11976028017635    3.57501581829193   -8.67694878897405
O           4.50129627417046    4.82446684072086   -9.01233390901232
C           4.55806207129083    4.91851951291082  -10.37270766454101
C           4.90336251581880    6.16283456266164  -10.99207480535195
S           5.41992385490877    6.20741701681219  -12.65867325958949
C           5.58544173616036    7.91561626857607  -12.60160840813674
C           5.27424452555358    8.42567440653758  -11.38035290506397
C           4.88205846301653    7.42696164046269  -10.45272367625733
C           4.47530747230019    7.75052780108429   -9.05095800654094
C           4.13962605567295    9.22601932291887   -8.89896595519689
N           2.83725268850152    9.54382642164880   -9.54675489433080
O           2.46434103499105   10.68844035020951   -9.45876810246924
O           2.24743411742780    8.65910233816419  -10.11418598285276
C           5.21218284418156   10.11436935727245   -9.53424119260300
C           5.27954857315328    9.88530507985935  -11.04456445972702
C           4.21368237259027    3.70068159415993  -10.91920533644849
O           4.13781959314927    3.34304355390467  -12.22541738265544
C           3.91546381906949    2.82263241379823   -9.83679608335205
C           3.47262411904471    1.43539681244936   -9.94694781361871
O           3.16413296209974    0.75947405509994   -8.98806049276774
O           3.41358043677915    0.92654655726825  -11.17504887454101
C           4.33813034580990    4.05875994677620   -6.21834306446126
C           3.96506687862919    3.51972674886075   -4.97904529521904
C           4.18288947460073    4.22311552869710   -3.67414298779878
C           4.63704968433191    5.66475183750825   -3.88006846141568
N           3.46314908313968    6.54304233872177   -4.16830510611770
O           3.62671924017692    7.45875269811065   -4.94041338429298
O           2.43768517455750    6.30760243317933   -3.58337642119688
C           5.67091315064871    5.77654591806589   -4.99239440640575
C           5.07179860085933    5.35474017748369   -6.33337596809216
C           2.22884207616212    0.21654225056442   -4.10630568870683
O           1.87532654476611   -0.53003781413754   -5.17614744491960
H           1.12120204490198   -1.89998252906127   -4.15423464026249
H           2.67607597249398    3.01561423380562    2.36450096111882
H           3.66247305607818   -1.46361364795926   -0.47769091514172
H           2.10434396175599   -1.73133625146858    0.28687603575223
H           4.79114011429949   -1.36560841078891    1.71756197142658
H           3.80187853634228   -2.83442748089797    1.64071604754594
H           1.95628496368885   -1.59086420826337    2.84185832808067
H           4.13490505067969    0.48065531804170    3.38294606642241
H           2.42234121493800    0.62095014164316    3.79317638078694
H           5.89824129593355    8.43958592906155  -13.48209485825246
H           5.29446156760470    7.51126432580380   -8.36809622027971
H           3.61701468346725    7.13798330769576   -8.76927370430985
H           4.01948916709598    9.48312706377821   -7.84101569653864
H           6.17171595014563    9.87352096600624   -9.07414087531741
H           4.98674038452400   11.16245590190533   -9.33333109948814
H           6.17272755927751   10.36009856517704  -11.45487673375937
H           4.41776897706174   10.35801475874241  -11.52715346675726
H           4.30727622211347    4.10400740346060  -12.79573453897446
H           3.65893711660249    1.57853920779922  -11.85468853929804
H           4.93348472617507    3.68710650402316   -3.08843563564949
H           3.25845825477154    4.21257936180534   -3.09170446018264
H           5.04390149388663    6.05193078962579   -2.93793971872894
H           6.50924750289912    5.12672598492831   -4.73763728679368
H           6.03952707226848    6.80039039600455   -5.06552993684895
H           5.86323109268756    5.26543032709520   -7.07883612906221
H           4.38373748773174    6.12728679168188   -6.68393564963624
H           2.12161016468891   -0.10532350093273   -6.00929479455835
