88
 SCF done       -187.959683962399          0.000768753809
C           7.93028669269543    0.31775348768912    1.76283567775737
S           7.44818289045410   -1.22139522089524    2.37135677691896
C           6.39143239987150   -1.51904071858180    0.99953006467156
C           6.44616870361390   -0.44949999436722    0.15232583870325
C           7.31233905712504    0.58855962780027    0.58414914581724
C           7.27575865606088    1.66484014144582   -0.43040507336976
O           7.85261025107980    2.71605199587909   -0.47447297222724
N           6.37425317910202    1.20001688088946   -1.38177780762943
C           5.81342918883356   -0.04354998633054   -1.11510040586473
O           4.97901019869006   -0.59452937336154   -1.78014153178544
C           5.67157886512790   -2.74806023332549    0.83460506682203
C           5.65826937162169   -3.55727049131018   -0.27897274085894
N           6.36948781593108   -3.39468537272908   -1.49289645361052
O           6.10399429881966   -4.16729408535233   -2.39085165891544
O           7.22404222616204   -2.53110077687506   -1.55231605224982
C           4.85948135366943   -4.73007316976825   -0.00540136926841
C           4.43281800014917   -4.67193917907110    1.27842168878460
C           4.87584155664098   -3.42961453847353    1.85969060921513
C           4.48002506468808   -2.88432459578775    3.06371147048676
C           4.36092368247441   -1.49533855097087    3.36057559514094
C           3.67535688482917   -1.35870447971227    4.53065841721559
C           3.36974223151757   -2.64948036550915    5.06457637546188
N           2.69539003563130   -2.74423651623018    6.29152307225721
O           2.18554207783355   -3.80756934729324    6.62913872363660
O           2.63184064686720   -1.73320630610465    6.96720857744768
C           3.89633185256009   -3.63129598972319    4.20351036481145
C           4.12208402831527   -5.00392323132056    4.34380264977116
C           3.53419028880635   -5.86016247168460    5.24919269105112
C           3.80984518576751   -7.21727531768932    5.34098676756989
S           5.02604489696110   -8.07399971446500    4.40667890592513
C           4.64014730721630   -9.63562032458359    5.10475749553192
C           3.59672308732936   -9.49139729905994    6.04866782485370
C           3.16272116203785   -8.14698267069841    6.17001782510150
N           2.17876942986702   -8.08746136162744    7.09225593929789
C           1.96725561068817   -9.35909022802941    7.57222740811729
C           1.00484976228390   -9.63087563556592    8.55797864477825
N           0.22194875780954   -9.85747269118852    9.36370563969511
C           2.82486358441166  -10.25207990879522    6.95158223000815
C           5.35573286536789  -10.75848990006883    4.70751518490564
C           5.01104591466902  -12.04144480831830    5.08140459641796
C           5.69850338404179  -13.20876746353906    4.75018379725949
C           5.14707372559071  -14.50132632613136    4.70598744486192
N           3.87772634097292  -14.91452247864904    5.14692821438497
O           3.56915392587343  -16.07513205423255    4.95285331565368
O           3.16140989262122  -14.10183660078549    5.71553109805806
C           6.07431472154951  -15.38276780978650    4.08448650069215
C           7.19654514412591  -14.68075069399905    3.74162298891460
C           7.05865465239128  -13.33267966943319    4.19211728525519
C           8.08208327202671  -12.41295368415847    4.33669876662463
C           8.20896686797866  -11.48281077432148    5.42071921869429
C           9.48217974123245  -11.00492516491050    5.44310909731948
C          10.19807384270401  -11.54427824195537    4.32280181011727
N          11.52799986688561  -11.18484798906133    4.03313096266140
O          12.07045685313746  -11.68168186942338    3.05958096747931
O          12.06587130683722  -10.39438435228607    4.78731443783302
C           9.36121101583016  -12.39276057403945    3.60511461624674
C           9.62194521092491  -12.97258205878178    2.34085626692293
C           8.66102382779009  -13.34283846648221    1.45451776805479
C           8.91246525444229  -13.91711995027528    0.18737124327037
S          10.50726604156749  -14.26937741097638   -0.46122444720065
C           9.85769305151383  -14.90802942706432   -1.92140652991140
C           8.49656978876924  -14.86037643652904   -1.91815150763605
C           7.96234444504364  -14.30249389817795   -0.73256127257119
C           6.49605963718375  -14.30408870889002   -0.82300384374385
O           5.66784502630547  -13.92637651026828   -0.03402844237007
N           6.23816619202353  -14.86296000455040   -2.06857048777576
C           7.36733570653263  -15.22790288237783   -2.80037952249351
O           7.35404854033386  -15.72501754143208   -3.89146229896540
H           8.63668821243090    0.90990567723467    2.30969103727518
H           6.15169685651478    1.72531647602932   -2.21591234181622
H           4.66708793862563   -5.49362292181792   -0.73448852251291
H           3.76546635808322   -5.36494506458051    1.75178073884388
H           4.64598129720179   -0.69748446520751    2.70435689442880
H           3.37629311861221   -0.44270751100903    5.00492543492241
H           4.83435575865053   -5.43577795494085    3.65167439904577
H           2.78010446844990   -5.47418417111165    5.92107800483590
H           1.68683672057085   -7.26061944572829    7.39494969861781
H           2.85826440424767  -11.30545911653050    7.14402322973846
H           6.18962831723246  -10.59906916297714    4.03724873431271
H           4.06965672449441  -12.18445274222345    5.59203347145627
H           5.89142314617760  -16.42982610331352    3.93277435511028
H           8.09236027522675  -15.09384337195006    3.32118956676878
H           7.45569544069169  -11.31241075764211    6.16489695876666
H           9.92056927054399  -10.33900070027219    6.16186744351884
H          10.66326830751494  -13.03986560761809    2.04892141401297
H           7.61144567180328  -13.18830487792081    1.67068228197623
H          10.51589834234639  -15.27553841023726   -2.68370595600374
H           5.30085302921400  -14.99806800593516   -2.42159949200652
