94
 SCF done       -186.290313110304          0.000338168278
C          -1.34018431404336    0.20577125045230    5.98118855218692
S          -0.55169469942096   -1.31687329474487    5.80068330497562
C           0.71167467098974   -0.88582568686630    6.94274986748580
C           0.48609056320501    0.38011762870494    7.40307405712182
C          -0.67069173916571    0.99745752413064    6.85839948977974
C          -0.78785504441796    2.34846215516950    7.44818559779065
O          -1.60995818151149    3.20671498662088    7.27840691934950
N           0.31829131735471    2.44779232423834    8.28435322663439
C           1.14728340640596    1.33104546580668    8.31250338599263
O           2.17596447771778    1.23863396720763    8.92557285487755
C           1.74697628078806   -1.80312911230802    7.31901742088919
C           2.13006355220368   -2.15333641133741    8.59283667571652
N           1.57749216091249   -1.72409391576590    9.82330438723079
O           2.15903542437722   -2.06153868717650   10.83455180477169
O           0.54097220951789   -1.08706022380718    9.80259854329568
C           3.15967562830955   -3.16787376117049    8.51859626085341
C           3.36115924109814   -3.48536667644637    7.21929378218410
C           2.52868002167221   -2.63941003203803    6.40140722589048
C           2.56288851921197   -2.49466357947634    5.03065072233459
C           2.28961141433141   -1.29113818131985    4.31172226462215
C           2.65976638414701   -1.46824100866276    3.01407898677004
C           3.12160080423456   -2.81045596336675    2.82690073020760
N           3.53412940261374   -3.22333263977236    1.54801784659801
O           4.18168509101493   -4.25355486264827    1.42213307609958
O           3.23756687611128   -2.50171464317372    0.61211820099545
C           3.04427560127760   -3.49573496176918    4.05107207574858
C           3.09382709064225   -4.85330174738931    4.40538210815711
C           3.49559734249445   -5.91256862641715    3.62677264402772
C           3.45140514027176   -7.23725605745849    4.08127954773373
N           3.84432395743994   -8.31007095756723    3.32026538797284
C           4.38613988294570   -8.26171016386997    1.98033629248257
C           5.85364981263251   -7.84501195237198    1.97439861622230
C           3.70973466709072   -9.52495650639283    4.00393675407055
O           3.99229461112096  -10.60485731691027    3.53135856258476
C           3.17824508926348   -9.14828958683058    5.30478598740214
C           3.02717468801546   -7.75518596785948    5.32456576434624
C           2.49657354427770   -7.38059556218825    6.62301230560108
O           2.19058599537227   -6.30499369870418    7.09515448026991
N           2.36956764854120   -8.59734172769262    7.31138009818853
C           1.91232708932819   -8.63283994766122    8.68109111135263
C           3.07436937852239   -8.76472669535930    9.66198887953205
C           2.76597457867376   -9.66840956393478    6.54793731244351
C           2.72395711069961  -11.00573870303805    6.97705595955783
C           3.08529101519988  -12.04976719536237    6.16749559421881
C           3.04285853924698  -13.40871423051798    6.53597253300203
C           3.35057062165651  -14.46673481847936    5.69601429698586
C           3.20693923427090  -15.69001869064810    6.40576877180446
C           2.77013838097765  -15.32169443513194    7.76685209859868
C           2.66839532198435  -13.96972207269672    7.82921554254729
C           2.42313978500585  -16.18736859400506    8.81415806963747
N           2.09011253871309  -16.83816711711594    9.69879802365034
C           3.42491544602147  -16.96501277171902    5.93402231762686
C           3.41244419703350  -18.18304738904783    6.67729171264251
C           3.65473063418930  -19.22743266023983    5.81519467204543
C           3.81618565362676  -18.68728874862289    4.47219656528353
C           3.70355185684477  -17.33602822616678    4.53233717284747
C           3.79575594555298  -16.47553760142683    3.43208613642893
N           3.87675721565198  -15.80440156244133    2.50378206507454
C           3.74001953115746  -20.61076407338513    6.12641492030734
S           3.80387578570624  -21.81534453971725    4.84765932775203
C           3.86342778326568  -23.12159134568989    5.96326910119608
C           3.84203452205642  -22.66417268634010    7.24329377769603
C           3.77356226374072  -21.24998877889794    7.34527656935800
C           3.80742692066194  -20.88941819618218    8.77330355020000
O           3.81362716060255  -19.81651330371164    9.31424230233406
N           3.86047824486658  -22.11477314703293    9.43201028435594
C           3.88629259924347  -23.23205254620984    8.60736211033255
O           3.93750514289191  -24.37268226479611    8.97781438582359
H          -2.23990066618018    0.40922549109581    5.43556342015219
H           0.50129831784533    3.27063296046940    8.84156354103877
H           3.64663548708721   -3.57341274706162    9.38426912608107
H           4.09926276990052   -4.16339711085813    6.84054619376644
H           1.97792732781654   -0.36674591556978    4.75634518753803
H           2.63799270057325   -0.74021775083253    2.22484762665242
H           2.74191262884198   -5.07635479647884    5.40368727647653
H           3.87432820598775   -5.73426333705571    2.63249678918115
H           3.79120307086445   -7.57753555838681    1.37121601669239
H           4.28822537340071   -9.27409000999848    1.57934995774093
H           5.97483054649165   -6.83574773141182    2.35935751217610
H           6.23136645658303   -7.87192575503148    0.95678467850967
H           6.44119271637024   -8.52913522880205    2.58216141903458
H           1.19829492354178   -9.45108418594761    8.80613906235356
H           1.39418561659073   -7.68550357923217    8.85287208586090
H           3.63714475548335   -9.67869742263228    9.48488516931173
H           2.69473289314481   -8.77877239163005   10.67954351990597
H           3.74804197668831   -7.91808601469923    9.55621239156184
H           2.37550619378107  -11.20028407023154    7.98082594600519
H           3.42343602978228  -11.84174296065252    5.16024843062969
H           3.66577758138785  -14.37547470651911    4.67488377852623
H           2.35957706183659  -13.40644999264564    8.68987317137385
H           3.26419805192003  -18.26114665716096    7.73673495817005
H           4.00243598812606  -19.27960958591286    3.59520987835358
H           3.91236837892019  -24.13153328857656    5.60778939006615
H           3.88842257663735  -22.18182753783730   10.43990249999982
