73
 SCF done       -129.545517750929          0.000598843299
C           1.89304488753175    1.30473860274954   -1.89034357232416
S           1.36303643204521   -0.14716974294131   -2.64408585884930
C           0.95280253632900   -0.85567803933356   -1.10907646322295
C           1.23198821827266    0.03328812393846   -0.07392495267564
C           1.76780422397928    1.26054066797834   -0.54287032633426
C           1.01712179741855   -0.21909731749864    1.34391047989784
O           1.26954264330969    0.56942486174708    2.22160496742992
C           0.41264808326037   -2.16624519869329   -1.02144231764225
C           0.17440622706571   -2.96900367236473   -2.08226517985552
C          -0.37010183491807   -4.27474559884282   -1.93945518615780
S          -0.66958575666109   -5.32629605756048   -3.31785927289104
C          -1.25551151335334   -6.48991535774600   -2.13431789732016
N          -1.18307484874245   -6.03390279656561   -0.91240934414692
N          -0.70219007507127   -4.83118306532793   -0.80609730806917
C          -1.74443945487442   -7.76919834904079   -2.50729538237287
C          -2.20937523760609   -8.65035382998238   -1.58736146700573
C          -2.70856296750410   -9.93107889799478   -1.93417709345205
N          -3.18385791621803  -10.83896349451597   -1.01443175393317
C          -3.19707275124534  -10.68346644798114    0.41994884185331
C          -1.81563130633489  -10.91018907716881    1.02891691450198
C          -3.63163456162361  -12.02158670263547   -1.62336926352227
O          -4.10074035022543  -12.95896304203407   -1.00542409886702
C          -3.40948855600527  -11.80483482134552   -3.03501070096849
C          -2.84235600797158  -10.51238141113271   -3.19184540321879
C          -2.62117456307099  -10.29287449922799   -4.60236313587408
O          -2.15898417603403   -9.35390452888664   -5.22157086825425
N          -3.06605393199115  -11.47817722066273   -5.21260524348584
C          -3.05747064028423  -11.62388170778339   -6.64771726260617
C          -4.43935081249413  -11.38597021131928   -7.25219942382346
C          -3.54289232290160  -12.38517057452581   -4.29308921113156
C          -4.05154940407277  -13.66483451343382   -4.64448307093135
C          -4.54554646752952  -14.52463190669889   -3.72407631330092
C          -5.09219716265779  -15.82133998972314   -4.00642202994846
C          -5.03169170844100  -16.48000114693839   -5.24618399829095
N          -5.57655724567393  -17.65459929008219   -5.45931695742644
C          -6.20542160647144  -18.23480743290016   -4.43338636391920
N          -6.29731693802250  -17.72067101501749   -3.20297851611784
C          -5.75248294372124  -16.54609710718692   -2.99740761755368
C          -6.83101974445158  -19.50745867604403   -4.65904599675760
S          -7.70329488861925  -20.27145141738459   -3.36961665094930
C          -8.11359306285446  -21.61484728891734   -4.38092275337647
C          -7.58144916001529  -21.46004863269011   -5.66095320826980
C          -6.85741100257546  -20.25652105191866   -5.80277674345969
C          -7.72587349777017  -22.40083031225373   -6.76421426945801
O          -7.25752620693149  -22.24335031942882   -7.86433193155039
C          -8.90925690953132  -22.70219356742321   -3.88359878830638
C          -9.40110139338222  -22.77110338891344   -2.64762350763598
H           2.26560056680894    2.10361002317822   -2.50027995734699
H           2.03878556736525    2.05835848699488    0.12440871695129
H           0.59527828908864   -1.21340321580079    1.57939978414199
H           0.17671071472289   -2.54463499064722   -0.03713923999882
H           0.39366827628993   -2.63895601298028   -3.08811054870553
H          -1.73338504696779   -8.01772301866953   -3.55920190966540
H          -2.20313094024089   -8.35766354732162   -0.54777078774896
H          -3.89334651317503  -11.43754474172177    0.79787747385616
H          -3.57654276526931   -9.69084553113029    0.67701153579504
H          -1.46607417703539  -11.91263880945526    0.79394453586044
H          -1.86901294745739  -10.80491908006341    2.10883616098599
H          -1.09633094393367  -10.19178613578997    0.64244833961531
H          -2.67905595509219  -12.61461090883014   -6.91496951362272
H          -2.35990396644200  -10.86944106086662   -7.02233023932719
H          -5.16570440075458  -12.09538258287188   -6.86148405418733
H          -4.39212212056445  -11.49155838648461   -8.33251259159443
H          -4.77810600196647  -10.38037136124316   -7.01568681871718
H          -4.03958187003440  -13.93086464223813   -5.69130892590618
H          -4.56243803198795  -14.22659595829698   -2.68349445262561
H          -4.51522768283438  -16.05179535348654   -6.09574972826849
H          -5.83999891260615  -16.14371321575444   -1.99581299953761
H          -6.37578693745290  -19.96083797411052   -6.71656428572291
H          -8.31473374964870  -23.30736190628593   -6.52787531675160
H          -9.10627652944659  -23.50143134732022   -4.58490000815469
H          -9.22237439576413  -21.99023091598674   -1.92725414358782
H          -9.99324564696663  -23.60817134922722   -2.32356552415077
