108
 SCF done       -207.052893613413          0.000821168476
C           0.20731832755881    4.80272613618487    3.70112343373710
C          -0.09074382132440    4.07180620358777    4.80720847965584
N           0.83837198239938    3.50991128804829    5.71465612856703
O           0.39463125011311    2.87645915433287    6.65310917523302
O           2.02035136403757    3.69319919208812    5.49517850443401
C          -1.53534309816841    3.94870480664005    4.93527368560959
C          -2.09984042655173    4.56668896739459    3.87839295527734
C          -1.04657499486659    5.12391592833927    3.04404108946539
C          -1.14269027621605    5.84228565678701    1.87923356679185
C          -0.09605317723192    6.66187759615460    1.33370880271888
C          -0.62052193124454    7.41974768238371    0.34406706272540
C          -2.01556781128671    7.07834168502993    0.16633062339631
N          -2.74661319673869    7.68366498748208   -0.87389389786599
O          -2.10010831492514    8.24474329365629   -1.74082601187319
O          -3.96568132677168    7.63602051610021   -0.86076996430667
C          -2.35817600642143    6.07124299051900    1.05778049437791
C          -3.46871011377304    5.19107977079649    1.14959822461253
C          -4.73895165394188    5.39654662630234    0.71843012754333
C          -5.81044565014145    4.44491479709508    0.81632436338595
C          -7.07389291981612    4.81582582638029    0.33675001159901
C          -8.14259402415822    3.94602500583433    0.39841316281296
N          -9.37783595223496    4.36126529181417   -0.22619981466972
O          -9.58297749906022    5.54932408288789   -0.31553939340862
O         -10.10686238593710    3.49225821428512   -0.65674565068615
C          -8.02396603537185    2.66140629798476    0.96640943088116
C          -6.74937209367026    2.29457824833884    1.42474521004548
C          -5.67816840832088    3.15085209866706    1.35149291702825
C          -9.16163637652838    1.79919246295433    1.13882738342360
C          -9.11558366447036    0.44812048176509    1.07130690714450
C         -10.28117752442923   -0.34370266708465    1.24600529764915
N         -10.34405131650873   -1.69456951253463    1.00652855914070
C          -9.28298335650569   -2.53188495297616    0.50256290927289
C          -9.07567707556083   -2.34351187293897   -0.99834308871386
C         -11.64384487528510   -2.20808191677079    1.20774401639905
O         -11.93984142830339   -3.37316140082184    1.04848804962198
C         -12.40962204416010   -1.05790782816075    1.63011285642034
C         -11.55183064131644    0.06272577628648    1.65465315755709
C         -12.33754696410920    1.19735870484568    2.08675816870581
O         -12.04186829135799    2.35551812604972    2.29042520774913
N         -13.64416745631602    0.68577008996446    2.26123531987871
C         -14.67638010727491    1.55602839225643    2.77643093811331
C         -15.00698890829830    1.24107871161073    4.23276315129047
C         -13.69856921848862   -0.65846068134516    1.98783194138201
C         -14.80164462770341   -1.55629738363388    1.96375540732044
C         -16.11367499896311   -1.27734174522221    2.12557139118963
C         -17.17679634984933   -2.23508600168924    1.99628890976583
C         -17.03012916365524   -3.59434652090031    1.87450926477725
S         -18.52095621880619   -4.41998573197445    1.72951994279148
C         -19.38985149317978   -2.95464447037854    1.81598743817113
C         -18.57113925238857   -1.86697358022245    1.96300472331519
C         -19.07750855136749   -0.49417730464042    2.05484251774657
O         -18.40923233639120    0.49309844529870    2.25316618555357
O         -20.42653781117586   -0.47309209296153    1.92721017053313
C         -21.16573309871991    0.67039351498336    1.93251336191703
C         -20.73452710745323    1.89325601527516    1.58116019252987
C         -21.48882063921085    3.11008283241378    1.59745132294416
C         -22.82265926638436    3.39130585961024    1.38018154155671
N         -23.92310630172019    2.53578563038764    1.16830091834983
O         -23.85980226386652    1.37464353193458    1.53735858815781
O         -24.89630371108807    3.02215783226521    0.62327114724041
C         -23.00522222019259    4.82773873895558    1.28331155960212
C         -21.80907228292390    5.43501564978948    1.41357440733225
C         -20.80321134325493    4.42393279487337    1.65333452733386
C         -19.51022561432329    4.65183343081753    2.04705372959774
C         -18.68725678555679    3.78127006055271    2.85691671189251
C         -17.62785040322655    4.48626184938238    3.30967926706198
C         -17.66787705363430    5.81497059362040    2.73350731228368
N         -16.65621709791112    6.76711088433162    2.98523522422391
O         -15.76532935027079    6.43544508284864    3.74505098421500
O         -16.73586579329384    7.85968599812795    2.45278354037943
C         -18.78043426454274    5.93794654806360    1.93385920952561
C         -19.07589194185719    7.02406263542931    1.04209426959900
C         -19.66627484448136    6.88851991030287   -0.14729231134850
H           1.18891323899941    5.03989578377019    3.34228366791977
H          -2.01786607363559    3.45187094882029    5.75460005284038
H          -3.15016483201819    4.70925294412682    3.71664033720227
H           0.90252871284870    6.71694755381610    1.71868987545101
H          -0.12670238490393    8.16880043303414   -0.24592311166635
H          -3.22841527801455    4.25058886131781    1.62617069266674
H          -5.00001786984329    6.34615981292947    0.27581932542972
H          -7.21937977606856    5.78799737092803   -0.11223834664631
H          -6.62491293408100    1.32424130069417    1.88052018465963
H          -4.72224724637274    2.81655744741076    1.72351070429136
H         -10.11744032731313    2.27358628471666    1.31978067300207
H          -8.19471152320675   -0.05705667690112    0.81566157577029
H          -9.59059765090502   -3.56193201935366    0.70373946663434
H          -8.36074395929516   -2.32647348624805    1.05339452362236
H          -9.98593413704408   -2.60325412191130   -1.53279471972409
H          -8.27388221465509   -2.99019708675949   -1.34357949157384
H          -8.82160495374267   -1.31191711395659   -1.23194797465249
H         -15.56679338999540    1.50101167027544    2.14612419266752
H         -14.26729073933629    2.56869012545573    2.70558618543502
H         -15.31055930658965    0.20363895763320    4.35190934335430
H         -15.81851169107556    1.87900180838238    4.56973649958253
H         -14.13742820483826    1.42238867153354    4.85984713210867
H         -14.49450943755103   -2.56756290255588    1.73070269547341
H         -16.44668396744038   -0.27527369328525    2.33225156603557
H         -16.11873678602210   -4.15767039315313    1.87471853013830
H         -20.46019896487156   -2.95797308374685    1.76027780525800
H         -22.17901777478880    0.46201827322992    2.24450227344983
H         -19.70509924570096    2.01651684583253    1.27867019423624
H         -23.96614554598886    5.28338650456389    1.13842208226594
H         -21.62798691914507    6.49012332945402    1.44655574189110
H         -18.94438838965736    2.78331429415059    3.14811524690501
H         -16.85538269555666    4.16440322159726    3.98164303465085
H         -18.68955386098600    7.98836504529800    1.34667457549903
H         -19.97737340865094    5.93030412462943   -0.52992670980836
H         -19.82424083266321    7.73818169828901   -0.78816277183253
