90
 SCF done       -187.346464146127          0.000894321459
C          -1.55107784986074    0.70459904812433   -0.98164589662494
S          -0.48679635805727   -0.55018161164127   -1.45282861864858
C          -1.79380793015574   -1.70380796927555   -1.58964183157413
C          -3.00351317176105   -1.07834080685925   -1.32102863742387
C          -2.85371961808248    0.29037204305926   -0.98127798506023
C          -4.16006513987617    0.91892671168054   -0.74726353539349
O          -4.39249661146769    2.05563473687003   -0.43147877221670
C          -5.18911700705196   -0.17783592387424   -0.99562272651962
C          -4.42422368225594   -1.41279981926096   -1.44742230559367
O          -4.92561891398063   -2.42856076119752   -1.87121197163689
C          -1.59648415734029   -3.07654799447533   -1.90954597628110
C          -0.72649647537696   -3.66632593279202   -2.81589418335496
N           0.33283341399831   -3.06622480629523   -3.50458896020396
O           0.79200833452933   -3.64840110380499   -4.46773608360551
O           0.75281763033134   -1.99073586732332   -3.08881052164707
C          -1.10404371299225   -5.04192884816920   -3.01206248176293
C          -2.18919826927581   -5.30878536499074   -2.24232019050913
C          -2.51214974866999   -4.13617640250103   -1.47942475766629
C          -3.33532758073653   -4.08385792375781   -0.37014865597108
C          -3.14082457596004   -3.27732872781996    0.79106503905984
C          -3.98503244747592   -3.70028631144279    1.77871671346809
C          -4.80339091589058   -4.75206346285345    1.27108398445358
N          -5.85361471590953   -5.31648062625736    2.00098103513076
O          -5.98382714451308   -4.97616192569813    3.16201124583514
O          -6.60325088876606   -6.12432562459152    1.44806711244491
C          -4.44610210760979   -4.99735285919770   -0.06874565957277
C          -5.18830537615828   -5.80796316383588   -0.92512767551587
C          -5.29843831499148   -5.75883370209616   -2.29521997276565
C          -6.26860586964404   -6.51703341105706   -2.95155102868820
S          -6.29845623849215   -6.62559452064877   -4.69541896048709
C          -7.67925434203707   -7.70166186456865   -4.73548490165659
C          -8.13493376695371   -7.92880103814977   -3.41337262860177
C          -7.34635767207205   -7.26639420949872   -2.43307780859573
N          -7.89662061350087   -7.49472548225760   -1.21544390320450
C          -9.00582144128443   -8.28186382718462   -1.38712198454819
C          -9.81162792577074   -8.69991035156227   -0.31519902072794
N         -10.48696771506219   -9.06086144365503    0.53730169022074
C          -9.18081850883181   -8.57773791072656   -2.72900246749893
C          -8.13418076794391   -8.14890382152335   -5.97012829768160
C          -9.19418279825172   -9.02034548777773   -6.12716128898945
C          -9.74950886870087   -9.51995276790923   -7.30826537376664
C          -9.31230139199803   -9.57380268194696   -8.64772764275829
N          -8.23520612487202   -8.95072343545660   -9.30312599912475
O          -7.92637538351404   -9.39439055110130  -10.39495645618389
O          -7.67420333292140   -8.00049595801759   -8.77834459562369
C         -10.15653629688734  -10.46320285430968   -9.37420830874735
C         -11.10978672510753  -10.97549352445090   -8.54111495117062
C         -10.94478037763409  -10.39394887859781   -7.25170434302578
C         -11.83182082104599  -10.49239776724500   -6.19332084805645
C         -12.12492420034377   -9.48171532603310   -5.22515452698598
C         -13.21646171044965   -9.86307629820576   -4.50134577869425
C         -13.61951216539869  -11.16743891045832   -4.93371711245040
N         -14.65786073490281  -11.89510487330636   -4.31857092517693
O         -14.78210185392055  -13.07540665164419   -4.59723974082645
O         -15.36812813318910  -11.29275636752259   -3.53512974580876
C         -12.79467179404943  -11.58839678953049   -5.96845904801244
C         -12.82367835546022  -12.85512400242357   -6.59975056529162
C         -11.73737941544386  -13.50894726595026   -7.08756832705332
C         -11.79551958093711  -14.77058043515519   -7.73403972761881
S         -10.30378717373013  -15.65488786874860   -8.00601142180017
C         -11.11883570840361  -16.97217394387912   -8.74076769962935
C         -12.46398425443302  -16.75169482453551   -8.78618947036422
C         -12.85938306766973  -15.50749509943324   -8.22573605119709
C         -14.30516342572378  -15.31850482862308   -8.39258914498657
O         -14.96201365751195  -14.33936405806000   -8.14111364906094
C         -14.83290455854251  -16.60832859585805   -9.00312378744508
C         -13.62873359234129  -17.48794096187961   -9.30475732173267
O         -13.64031708530265  -18.55518852217599   -9.85778637475197
H          -1.17394007065384    1.68496371528861   -0.76509348371418
H          -5.92653360290421    0.12867453836746   -1.73985166311646
H          -5.74314175134848   -0.39256970184625   -0.07878923022728
H          -0.57289438518348   -5.71111397478137   -3.66149588124193
H          -2.65826207636710   -6.26427284275957   -2.11273123676938
H          -2.37461936525224   -2.53456310384088    0.89888371648070
H          -4.05459406653405   -3.32124074365615    2.78118889119400
H          -5.83711771537269   -6.49699647136381   -0.40953423861395
H          -4.68580685179269   -5.09202949656177   -2.88191570118523
H          -7.61922754489172   -7.11362263466840   -0.31838660596327
H          -9.97851002723561   -9.17549164620130   -3.12086911507770
H          -7.62728532997745   -7.76498683939358   -6.84408198628410
H          -9.66527866773689   -9.37862019706752   -5.22466073718049
H         -10.03787804053723  -10.66056466820951  -10.42313733219932
H         -11.92484107786482  -11.61024060844299   -8.82744183997981
H         -11.65715023005548   -8.51660488098680   -5.18559219594892
H         -13.71732090410744   -9.31076776373832   -3.72870893044009
H         -13.78932492056236  -13.34807699386901   -6.61831500225048
H         -10.74535841249100  -13.10104710853514   -6.93938686883137
H         -10.56846394515335  -17.82087641239209   -9.09601881246229
H         -15.42458629951332  -16.41446328460302   -9.89996722294233
H         -15.49925393573923  -17.10926648457331   -8.29623272397057
