107
 SCF done       -172.556228381448          0.000679652998
C           0.43799627936962    3.28407324477904   -2.39692777716135
C           0.43247337707473    3.08658722889057   -3.77498817925996
O           1.59922352126759    3.13833491757157   -4.46301347320906
C           1.49675846763798    3.08140420286855   -5.87002486162108
C           0.62356128650719    1.93208037910703   -6.35107292119023
S          -1.11987139999313    2.29618571668612   -5.96253747775599
C          -0.82885561692425    2.77435008079803   -4.28798966006689
C          -1.84024349588802    2.75170571125912   -3.32500730860194
S          -1.12220662246239    3.20280707966971   -1.72968923846881
N          -1.76583091394278    4.86398159054546   -1.83332250322582
C          -1.68936648949844    5.61077874149082   -0.59934564062531
C          -3.19064751331474    2.51000489916341   -3.45434696964545
C          -4.07249682431334    2.37376327134994   -2.38953454255875
C          -5.43191481607463    2.13819871986516   -2.49965106897461
C          -6.25308088217658    1.87879401570072   -3.61764665760159
O          -5.72277821173952    1.91080577961173   -4.88901434283379
C          -6.44771466185506    1.17417810472757   -5.84204868200258
C          -7.89463372878251    1.63521661084153   -5.94390623053177
S          -8.80662802969868    1.15320584632754   -4.44104173041597
C          -7.55587154226520    1.55698063583515   -3.27939310950366
C          -7.83358673477859    1.55063372936200   -1.89622867883416
S          -6.42513265548708    2.07965748570291   -1.02368937580055
N          -6.77970553060102    3.81449193804417   -0.91858113255487
C          -5.77244079213341    4.61689431541048   -0.26307282661393
C          -9.00112759988339    1.10279426657397   -1.24903457124322
C          -9.21905366387741    1.12552354272679    0.08667615816461
C         -10.38922940450216    0.63074590213760    0.76142341069579
C         -10.54666419665872    0.82433125397270    2.13629039235592
C         -11.65936793027128    0.32098760492764    2.81085879469845
C         -12.60462937612515   -0.36164662387638    2.03068733628077
N         -12.48016483181775   -0.54954853989416    0.73132533489607
C         -11.41447179245008   -0.07917350923155    0.11507688318289
C         -11.81734243682976    0.53105230755697    4.22900102369107
C         -12.64831495506094   -0.16375480015249    5.03444270290488
C         -12.84169895411359    0.06639702081550    6.41782441367743
C         -13.57589978901929   -0.73873492366024    7.31075477621082
O         -14.25172494356098   -1.80161584939443    6.79917054012375
C         -14.74178660067851   -2.73785766290823    7.73103357320304
C         -15.53389952695471   -2.07843620187976    8.84801649367480
S         -14.39387247536091   -1.16314042403680    9.93483811096607
C         -13.50356799416384   -0.34860794547955    8.64320544907619
C         -12.68744091695956    0.77599390804535    8.85954701496532
S         -12.09435596773324    1.37044995794033    7.28349575170258
N         -13.32020568336423    2.64275183281154    7.13208612864866
C         -13.37313605365885    3.29686978952335    5.84269006537251
C         -12.29326648214171    1.47367233668512    9.98706374155869
C         -12.64834183526150    1.20553847706595   11.30078650867250
C         -12.31436481529698    2.00385450534483   12.37911487307867
C         -12.47011920192533    1.74291546976363   13.75114820680273
O         -13.05637665911498    0.56245962816905   14.15052218864325
C         -12.74092036696950    0.17467410418221   15.46366694596111
C         -13.10040245284485    1.24743922700545   16.48283708203235
S         -11.96517235941639    2.66453917569777   16.32149745849503
C         -11.94291841729236    2.73202988269473   14.56895089200249
C         -11.35780876975165    3.81455188444685   13.88920306193896
S         -11.58497092724426    3.62229895963562   12.17716816241487
N         -13.10438304744898    4.51396191740648   12.00302887476031
C         -13.71712653040844    4.51137817268481   10.69430133725683
C         -10.62895707863606    4.90372654351727   14.43592691771411
C         -10.08826926812413    5.91122620245578   13.74234085341130
H           1.30475091045407    3.42516328589465   -1.78911226696844
H           2.52478975899505    2.95744080393959   -6.22197816644699
H           1.09704442690144    4.02940442912667   -6.25594016564068
H           0.90670619182313    1.00016839844105   -5.85994804770216
H           0.68787437234619    1.82044168821909   -7.43092333788388
H          -2.71006116170972    4.83138928078077   -2.20538936701519
H          -0.65697745909934    5.58796012564353   -0.25267717303270
H          -2.33758161274076    5.22381892724361    0.19691775941818
H          -1.96536394001280    6.64526000739347   -0.80271199699457
H          -3.57718279693990    2.41906164608585   -4.45835711029422
H          -3.66856858171313    2.43760534608992   -1.38472752919123
H          -6.41930525345259    0.10134499655919   -5.60186042048012
H          -5.92758673970774    1.34348139958776   -6.78878710957418
H          -8.40329646624107    1.15811769090892   -6.77871453834583
H          -7.94343621979904    2.71969817201341   -6.04599535149409
H          -7.68308836113117    3.89950965734039   -0.46335869150184
H          -4.83328207821114    4.47608855474099   -0.79591948243035
H          -5.62496378495076    4.36854406736615    0.79502181898628
H          -6.06187735265175    5.66446822760009   -0.34126933836573
H          -9.76528373115024    0.73181059888401   -1.91865583886698
H          -8.43979016356089    1.52965557977128    0.72731396027535
H          -9.78699000713043    1.36316708525358    2.69033217897351
H         -13.50871542397053   -0.76003524599776    2.47057547046910
H         -11.37207161805015   -0.28193358292060   -0.94602150539287
H         -11.19057358839052    1.30045456535980    4.66997293016124
H         -13.23375358006677   -0.98204117440363    4.63958220447998
H         -13.91027918213770   -3.31399755975111    8.16109257452792
H         -15.37825872744251   -3.41014680026012    7.14880078092086
H         -16.02730924818343   -2.82026048886095    9.47170018375924
H         -16.26757155965465   -1.38195492934045    8.44030245621574
H         -13.16226595657199    3.30962746354153    7.88220403019294
H         -13.53019052697286    2.53486272921634    5.08132364491658
H         -12.46884889300203    3.86542713277960    5.59640642878429
H         -14.22551035941611    3.97585734392623    5.84161021770526
H         -11.64127629158573    2.32451666931395    9.81660060410001
H         -13.21358085322380    0.31459453536042   11.52974955706725
H         -11.67092820800136   -0.06715978657643   15.54825355366797
H         -13.32752929793838   -0.73011447445359   15.64426751279154
H         -12.98943404426296    0.87899895293517   17.50031660629779
H         -14.11918471117704    1.60074062012524   16.32110851067496
H         -12.91848386518724    5.45749044027420   12.32917687717021
H         -13.91298516961969    3.47753766999959   10.41277095850463
H         -13.10483040197629    4.99271355565669    9.92046583566262
H         -14.66791272034791    5.03936127831145   10.76264398503192
H         -10.54052127029320    4.88115894047626   15.51517042080554
H         -10.15277145826972    5.95085550620281   12.66606474759941
H          -9.54615615947456    6.70273503128380   14.22452912945967
