109
 SCF done       -231.116434471321          0.000990963152
C           4.98542668280855   -0.16211425965662   -0.83074993528685
C           5.20650975350975   -1.32704461495302   -0.10928317402878
C           6.55746360202730   -1.80389073703937    0.25514940624238
O           7.60264977203786   -1.27514204740092    0.04570954479136
S           6.39678301438592   -3.38652942301779    1.10325778621846
C           4.61457274791085   -3.40845201374952    0.95329353135608
O           3.94625000249783   -4.33853387537455    1.30603932188459
C           4.16585109410205   -2.16170355553841    0.30941340727349
C           2.82173401468611   -1.85646072482522    0.05188837177877
C           2.61588179936384   -0.68047598126600   -0.67498089434455
C           3.65860850413965    0.12842197705294   -1.10896076004485
C           3.05008408482618    1.25754924002786   -1.86625153274909
O           3.57267786942923    2.17573114489971   -2.40923783967681
O           1.68940132498077    1.07421250595372   -1.83076879287920
C           1.34686310298563   -0.05615700645603   -1.12999160344693
O           0.22156256256533   -0.38892805895269   -0.93702681863450
C           1.72473864854831   -2.70407859417126    0.47368317111598
C           0.83474471931264   -3.36578639829265   -0.34606045216998
N           0.80770959663704   -3.31752639609217   -1.75356042609634
O           1.67882112334589   -2.66844619172133   -2.31669982702349
O          -0.06752775782509   -3.93290178675825   -2.32420701710381
C          -0.03848855694040   -4.18563370719771    0.45599673223055
C           0.34104035146892   -4.06419565684733    1.74916233248236
C           1.44814368377078   -3.13567454382732    1.82848259212091
C           2.04780792316890   -2.63986029453556    2.97226122101463
C           2.62789112263697   -1.35390123490615    3.14502362979508
C           2.82953753454645   -1.13812030520420    4.48167552280449
C           2.45931236361370   -2.31105691281797    5.20438077387956
N           2.65395116758071   -2.45589217803467    6.58932133455668
O           2.48239625926192   -3.55519004718570    7.08918838743027
O           2.99048043615026   -1.46314916531595    7.21121137443940
C           2.01415934469994   -3.28123650839416    4.30364779499312
C           1.74121131287358   -4.63378313249322    4.55156317527940
C           1.96026680694178   -5.61575644058190    3.61533742421724
C           1.65689671441069   -6.96693885327428    3.83170638058891
N           2.08589307255651   -7.99189757131068    3.02340441443924
C           2.97734427517132   -7.86920063801247    1.89270797891401
C           4.42201713867328   -7.64653259983531    2.32853584140792
C           1.63193401883253   -9.24056383725366    3.46752570278994
O           1.90399660116416  -10.29395639120389    2.92969301776717
C           0.81997504693918   -8.93364276501129    4.63373148964293
C           0.85821532722984   -7.54581657666008    4.83359777550823
C          -0.00064743052046   -7.22634006745358    5.96132503456451
O          -0.31259782819231   -6.17576517320324    6.47060237775478
N          -0.49158021889830   -8.48116313474574    6.38316185946288
C          -1.34687869478866   -8.59850005535879    7.54118259574460
C          -0.56449169550088   -9.04760412822442    8.77203352297032
C          -0.02064047610334   -9.50402347934270    5.60956375450055
C          -0.38792895763253  -10.85482016305728    5.79933265897445
C           0.11366433420187  -11.85085625767170    5.02067607939873
C          -0.16307759829458  -13.24257238347311    5.08844684454299
S           0.82567006352400  -14.18508230378180    4.00039261344761
C          -1.03094906831733  -14.06286584247378    5.81687451880079
C          -2.04077873572988  -13.65632245012994    6.82018005766190
O          -2.26941208995965  -12.50676208868252    7.15985330594828
C          -2.76559854179314  -14.77820014956878    7.39169913631548
C          -3.74849128373445  -14.75626743271246    8.35879717685306
N          -4.14431279070137  -16.02683383238699    8.60465698420768
C          -5.20277509601209  -16.40790289331575    9.50684626634789
C          -6.54573872200203  -16.46017719065297    8.78141731168506
C          -3.45453934436149  -16.87823150303581    7.81305753831918
C          -2.57752057893401  -16.14527819316746    7.04056577873272
C          -1.62533322477221  -16.56934429722441    6.04332985848975
O          -1.46149873669745  -17.72255778472259    5.67547792382592
C          -0.85537294980163  -15.43659642456756    5.48501448608266
C           0.11769626155139  -15.64938941381600    4.53036212248321
C           0.56277262549847  -16.94906307175239    4.05112883276817
C           0.43678821190808  -17.38048607667251    2.72705090005443
C          -0.21483874116530  -16.58660368097051    1.66614927464305
O          -0.71266635048583  -15.50546691397913    1.76506531835341
S          -0.18495224724603  -17.52394400840122    0.13663839885011
C           0.63447345191772  -18.93754756466227    0.88553948376127
O           0.92417258363408  -19.92726930105452    0.28952161293813
C           0.86180032820075  -18.64908874914576    2.31987743507371
C           1.42029661644035  -19.56573724769860    3.19790141076910
C           1.53744535483621  -19.14307176000589    4.51386064639838
C           1.13562527075025  -17.87762853030335    4.92375965163649
C           1.39674267894511  -17.77837122187562    6.38327313024361
O           1.22917325704066  -16.86680196682842    7.13047660281984
O           1.92093960756924  -18.98192705440205    6.77727091415941
C           2.04046687614460  -19.85556097132013    5.71853643673935
O           2.47454714298528  -20.95515218245784    5.83025511148010
H           5.79893017322476    0.46327375248857   -1.16142839418249
H          -0.84004045053532   -4.77055391286823    0.04897138243701
H          -0.14714497277453   -4.48947034816277    2.60373035176454
H           2.76401378491026   -0.63010449759371    2.36443917561954
H           3.21043375246199   -0.24837930168584    4.94753255803585
H           1.44245716598634   -4.90260152182920    5.55855813360642
H           2.45533744641186   -5.35437976793329    2.69093542128328
H           2.64195493841051   -7.04934693066516    1.25248368893506
H           2.89566665402374   -8.80964920601970    1.34124789267764
H           4.52168474970141   -6.71491055586288    2.87955477869277
H           5.06121119257004   -7.59737174986153    1.45221234504654
H           4.75604708361186   -8.46725776403462    2.95859861404163
H          -2.15950286182900   -9.29627039502406    7.32598632122867
H          -1.76378703411784   -7.60236199644500    7.71211756270030
H          -0.13169328004844  -10.03320205996141    8.61806036071369
H          -1.22953666635178   -9.09024532258994    9.62945003746985
H           0.23429204090411   -8.34182290292878    8.98676023607672
H          -1.09727751566759  -11.08702517322170    6.57803784530876
H           0.83100501185579  -11.58705252464326    4.25062286537572
H          -4.16905990024515  -13.91740916407573    8.87711932902665
H          -5.24373138043313  -15.67909636086804   10.31982897620463
H          -4.96572802107304  -17.38865898480017    9.92686410869944
H          -6.78992051195431  -15.48649391673298    8.36340318635179
H          -7.33007481581660  -16.74827826621133    9.47506701400705
H          -6.51268473254315  -17.18564837508735    7.97221157715678
H          -3.60799186107761  -17.93876680983860    7.84245126943373
H           1.72793854001245  -20.54678284251988    2.87306803120149
