105
 SCF done       -214.948312866287          0.000458467185
C           3.37502163257362   -0.63265047940503    2.32371923502557
C           3.61869126658152   -1.95543300900225    1.98290224353571
C           4.91229952562544   -2.62217255772457    2.25794964220612
O           5.88901505768373   -2.13698437056718    2.73707851712273
S           4.79279530434901   -4.33894452398342    1.75091638671840
C           3.09227176743465   -4.17223686375703    1.20014252926262
O           2.45606830400514   -5.09432647599000    0.78551135658312
C           2.65632482008589   -2.77184704461113    1.38178608381661
C           1.37621995220036   -2.28884289908037    1.06427656951631
C           1.15470917157195   -0.94113412785722    1.38010324210826
C           2.11602308752609   -0.15220669185935    2.00226640071813
C           1.52377689238206    1.19905640288655    2.19856305262642
O           1.98538767466732    2.16329092956536    2.71566426032090
O           0.27087578904266    1.16712329921844    1.63642944944353
C          -0.01345971275933   -0.06005574352746    1.09795169634073
O          -1.00318989158173   -0.27214939628561    0.47100521464288
C           0.28691029926390   -3.08123011102275    0.53696944274348
S           0.37187607614823   -4.14405246058768   -0.83881029424398
C          -0.99013732136844   -3.06035669710057    1.03581982914466
C          -1.70805643111600   -2.42697246450921    2.15988341919941
O          -1.28968965559545   -1.68382183478972    3.01445577465394
N          -3.00513222811623   -2.89445805925197    2.05445624176857
C          -4.07784027447995   -2.44022334145368    2.91487284893018
C          -4.74514616125860   -1.19663393506334    2.33847887361538
C          -3.20603938244902   -3.77762148351000    0.99235458218126
O          -4.25178307476325   -4.31034337765822    0.72082899830299
C          -1.88951245706427   -3.89150103725972    0.34657740406348
C          -1.32848800701640   -4.55598763137425   -0.72538151964764
C          -1.99065680091352   -5.45589170398293   -1.59603633358411
C          -1.39177294585568   -6.04148868863438   -2.66351741114726
C          -1.91292128455010   -6.97656303912678   -3.59127174269938
N          -3.08480970908894   -7.69035590784109   -3.56772648132225
C          -4.14596282896319   -7.65551475154159   -2.58871053353315
C          -5.12998112029518   -6.51912811618701   -2.85699377587700
C          -3.19395837419502   -8.55003283759242   -4.68241021951287
O          -4.13656699933467   -9.29154514640879   -4.86163660092102
C          -1.98154894589863   -8.32302925424931   -5.44080693084728
C          -1.22235224382887   -7.36457545782131   -4.74366254274981
C          -0.00492164614057   -7.11296127584338   -5.48778386641289
O           0.93388645894230   -6.37564041143956   -5.28520852066437
N          -0.11677952095752   -7.95459951831879   -6.61196402261881
C           0.94154380888846   -8.03264218019278   -7.59033297701648
C           1.81979066479225   -9.26407286116525   -7.38256027212740
C          -1.27994701923558   -8.68908387218574   -6.59837962074927
C          -1.63559163175245   -9.61694234105641   -7.59768162009461
C          -2.76652002537312  -10.38048120931366   -7.53124588300200
C          -3.13749080204030  -11.34137533086610   -8.49654629331920
C          -4.22575022742790  -12.19074187320654   -8.40820824746802
C          -4.25110428906465  -13.04631852694116   -9.54244774514776
C          -3.10087047105798  -12.64549347829881  -10.37962702148728
C          -2.44729355578633  -11.63893107945523   -9.74760135303798
C          -2.74154464605785  -13.16404719926089  -11.62973856411619
N          -2.41937024408593  -13.54517113720321  -12.66424778312058
C          -5.13127332030859  -14.07039137603490   -9.81310994551993
C          -5.08981541535185  -14.97724684446310  -10.91436124530881
C          -6.13703517381048  -15.86557731086046  -10.80809713596388
C          -6.88827428344661  -15.52635504117098   -9.60801816214315
C          -6.29802679542109  -14.46271658723820   -9.00291284430977
C          -6.74394088736570  -13.85874228895480   -7.82169778127093
N          -7.13733515183193  -13.39142710975447   -6.84911428502766
C          -6.49431322683759  -16.94369534431007  -11.66734405882323
C          -5.78697266301626  -17.29886069262330  -12.76369022607522
C          -6.10517456073338  -18.38697874901711  -13.64504336550915
C          -5.08074163435462  -19.12009918781553  -14.29360810197888
C          -3.63776207744483  -18.87718785809341  -14.09207436328693
O          -3.10662831225298  -18.08978959982738  -13.36884408562312
S          -2.69279773479678  -20.01525821948006  -15.12314600221508
C          -4.15662120660407  -20.82795747483833  -15.75093772186228
O          -4.13902376327156  -21.74128357175580  -16.51735434680251
C          -5.34980732818868  -20.17770332238119  -15.16070025943375
C          -6.64151443325362  -20.59161029027040  -15.45566517850209
C          -7.65059407689249  -19.86883480610194  -14.84504180206857
C          -7.41102272040783  -18.80551719675526  -13.97492442450485
C          -8.74153363876095  -18.23769093725936  -13.63108405099439
O          -9.04252364959556  -17.29235156888113  -12.97195482873935
O          -9.69332930541442  -19.00864618203302  -14.26104267533481
C          -9.12086749416812  -20.01172805726251  -14.99983183741298
O          -9.74718082467596  -20.80571554174688  -15.62455737407529
H           4.12408876346408   -0.02530434129948    2.80589795241078
H          -3.64211965442545   -2.22216588084133    3.89258935627677
H          -4.79768277010148   -3.25749528174388    3.00127649825177
H          -4.01304446248211   -0.40190290531588    2.21517204401445
H          -5.52723606823522   -0.85393627823217    3.00971932090233
H          -5.18657691765477   -1.42118704683227    1.37035073478682
H          -3.02706074471396   -5.62020283461594   -1.34225716231269
H          -0.36533751938906   -5.76666121559463   -2.88229847276081
H          -3.71370043111881   -7.58613738714384   -1.58840425727081
H          -4.67093608568163   -8.61136299530844   -2.67856233683393
H          -4.62249933173480   -5.55858603908835   -2.91017263347410
H          -5.86827785115074   -6.47885285363100   -2.06146603328806
H          -5.64214590809855   -6.69058173836138   -3.80051159424900
H           1.54207241726802   -7.12859137576595   -7.45652870814767
H           0.51236257499702   -8.02239252693764   -8.59622119318156
H           2.27755955496116   -9.23055519938771   -6.39708596677322
H           2.60768304825749   -9.28373052377259   -8.13028047865629
H           1.23810276818343  -10.17997234099722   -7.46176928475045
H          -0.96435505088647   -9.72491416018667   -8.43700636236553
H          -3.42792302617403  -10.27314668533695   -6.68118301247834
H          -4.92885531765055  -12.21709887560785   -7.59879519442103
H          -1.57295835283080  -11.13538090728280  -10.11580274702042
H          -4.34105212021622  -14.96076807559535  -11.68091986250593
H          -7.76941028564547  -16.04341139456083   -9.27563930852114
H          -7.37053254114762  -17.50474645145664  -11.37668175375030
H          -4.86354543099313  -16.78043422639330  -12.97807216981129
H          -6.83779720367159  -21.41166211347023  -16.12684639035517
