71
 SCF done       -147.868304409126          0.000417253018
C          10.16162641797311   12.86166132595212   -3.56918530286682
S          11.07284376683422   13.80094784753543   -4.65732363175892
C          10.52703928811219   12.79930873544277   -5.95965489302418
N          10.97675869608682   13.09267286576477   -7.26415647156524
O          10.58444897022137   12.38206471271729   -8.16524562610478
O          11.72628899128735   14.04197619956644   -7.38236483021721
C           9.68726407720942   11.79759347674760   -5.56021550393791
C           9.46563186105969   11.82378702152459   -4.16134773102493
C           8.63921080166198   10.91832038269245   -3.41058450209118
C           7.94913642897726    9.88278824266233   -3.92967762927809
C           7.14291673090211    9.00825284508465   -3.14776790352718
O           7.00391885801398    9.16835673443051   -1.81801679732953
C           6.18509653380261    8.18674689222840   -1.35743989030224
C           5.78740619801155    7.37699562178265   -2.40531864653175
C           6.39848962947597    7.90035383886747   -3.56130343732680
C           6.29576315527527    7.42554533132269   -4.87674444172329
N           6.21571303647746    7.04507790170242   -5.95516874136328
C           5.84518620809089    8.10519735140830    0.01880780825925
C           6.27866089799011    8.98773208687389    0.95253020766334
C           5.94201423490300    8.94073375565831    2.32642132933770
O           6.40942331993726    9.90487752388875    3.14523950110390
C           5.94847972410983    9.67050569387232    4.40159486152681
C           5.16815027940117    8.52132090453271    4.39817127123017
C           5.15921692082617    8.04875230024347    3.07599721606996
C           4.49363285153353    6.90397826722966    2.61675583522414
N           3.94147605789377    5.96125867870437    2.26691638337282
C           6.30076710243113   10.57174958050973    5.42788291076055
C           5.87478724012981   10.47602933115890    6.72305899772894
C           6.21131544743565   11.38679081255671    7.72907899873095
S           7.24885956873759   12.76050293033865    7.42501269723594
C           7.12128640258193   13.34095825620271    9.08200544735745
C           6.27852275267139   12.47657275601756    9.84366568992725
C           5.78676778813187   11.37904970607199    9.07403489963728
C           4.96934803268138   10.41932663708869    9.69048167368699
C           4.62597158052022   10.55719573572493   11.01341330574892
N           3.92411353650905    9.44732553553978   11.63627274360294
O           3.01435956301936    8.95865356404653   11.01157115912827
O           4.36934047616951    9.05061603329245   12.68526456627745
C           5.06026577062214   11.67505565025137   11.75378210495606
N           4.55815222366215   11.94498443887435   13.07237963911488
O           3.47500085081363   11.48059340766175   13.35724296714928
O           5.22516696414756   12.66975253417980   13.78141295656116
C           5.89317678939973   12.61567511333465   11.17071307677209
C           7.79799472941026   14.47467170057451    9.44804240352586
S           7.79514693295483   15.17950329841900   11.04116053163307
C           8.85160373210367   16.52794382538094   10.66677201800625
C           9.30669008513257   16.60335801031345    9.38266037061103
S           8.76947129646382   15.34275719608651    8.28773014676698
C          10.20355132648589   17.64224633356678    8.83475328176863
O          10.62178234231136   18.56103998275450    9.50089627384313
C          10.55717239966606   17.46661246456864    7.38362231562506
C           9.16100429691209   17.45281782350213   11.72852793114778
C           8.69427907694736   17.33879048430378   12.96982563414805
H          10.16960749062519   13.10588284499127   -2.52448456825908
H           9.26112892705244   11.09050531632295   -6.24742436030624
H           8.58453424294897   11.10235666222665   -2.34640632109075
H           7.97367620549732    9.65561362358532   -4.98511820001633
H           5.14229864058875    6.52455760957795   -2.34685845499925
H           5.19859370900200    7.28475838965646    0.29020066690741
H           6.92148981708049    9.80661702676082    0.66046621791914
H           4.66749811933991    8.07466744587399    5.23222945515589
H           6.94288962672009   11.39212908059758    5.13711866475886
H           5.22727876647977    9.65886465540912    7.00413223339216
H           4.61987954780842    9.55565730692680    9.14731658195766
H           6.19874158294411   13.45632124628672   11.77201072271307
H           9.65539801383514   17.48030896906011    6.77364845488986
H          11.05519479778104   16.51031228009044    7.23211567144980
H          11.21699854561590   18.27296768290659    7.07479937748249
H           9.81288346492858   18.26727351872225   11.44723851287761
H           8.04360509733950   16.53289293660476   13.27197992470193
H           8.95533116031003   18.05562372362990   13.72767224521385
