73
 SCF done       -163.122235773835          0.000987521603
C          11.06538041720229    0.03335421014296    3.06788940483517
C          10.37052286713942    1.16868659810990    3.04726150857287
C           8.97106405250968    1.25610204855936    3.36856615979127
C           8.13480824321021    2.34833061236524    3.38570727149350
C           6.85676263904588    1.87388263271154    3.76547890907255
C           5.74618682868598    2.69651878604337    3.99712835380271
N           4.87682736213450    3.41383043329664    4.20954477775869
C           6.99480175885391    0.49727498107164    3.95263425623595
C           6.13929472452069   -0.55374363555544    4.37661076729665
S           6.92597148705900   -1.97418813138988    4.97258506771691
C           5.43505987090104   -2.79957533272567    5.30004251021329
C           5.41193819283699   -4.07318902301875    5.91212437756163
S           3.99217101931264   -4.65170880766941    6.72832374125317
C           4.72994312148876   -6.13349306823495    7.23730139198174
C           3.94419433726684   -6.99960533524826    8.03358592600446
C           4.35983677089035   -8.07295372429363    8.75290425439090
C           3.48988231287042   -8.88989432585129    9.52183232761229
C           2.13005257731427   -8.83156720065290    9.77695292708630
C           1.84021130282340   -9.92497439889453   10.61313652407463
C           0.59763644019720  -10.29187212020088   11.15014282783838
N          -0.41181494112242  -10.60202135095451   11.59578565318721
C           3.04881123564652  -10.59973903438430   10.81892272121995
C           3.28722182229550  -11.78610312148113   11.56763102908628
C           4.49688739127590  -12.37605213905664   11.65828414213203
C           4.78300910046717  -13.58543764804145   12.38118077828124
C           3.88345729208277  -14.33090169335788   13.12280982141589
S           4.55958435523146  -15.71558006222733   13.84073312791234
C           6.09649704740143  -15.31975820473033   13.14846535176272
N           7.18925193223555  -16.17699761838778   13.39929232880076
O           8.25761971123353  -15.87919920527862   12.90938188580845
O           6.97014723206152  -17.15104354213316   14.09124342500922
C           6.07168305981561  -14.17319659764031   12.40516943745860
O           4.02918117644784   -9.96140407422226   10.16052203420006
C           6.04625872436561   -6.20571262046687    6.75009450397378
C           6.93581610141255   -7.28916984162141    6.83015871056515
C           8.19725902745484   -7.19472758062930    6.30197060352329
N           9.00441003479741   -8.39718664277235    6.27309797002323
O           8.86382275481217   -9.16795552052104    7.19400633675342
O           9.69576014752759   -8.56673068804550    5.29796322017385
C           8.61834163011135   -5.99936120003716    5.67007268616925
N           9.99910376329534   -5.78174763435498    5.28866768399320
O          10.84094259340791   -6.27691851332130    5.99861712973925
O          10.19825774181608   -5.05635888089640    4.34243754657498
C           7.74592766258575   -4.95428739240567    5.50923656038387
C           6.44244316843156   -5.02783419317742    6.02627338803484
C           4.34834900597002   -1.98760461840017    4.91488976265159
C           2.98614906966561   -2.32383455994315    4.90792411046118
C           2.05631083915898   -1.43259576211746    4.43783253888744
N           0.68967744942431   -1.89261802106470    4.30915848538164
O           0.32327038195908   -2.74076778066090    5.08942059270928
O           0.04687087081813   -1.44413512534567    3.39017030996964
C           2.45154390636360   -0.16083642018047    3.95649935156404
N           1.46875651910566    0.85040203378728    3.59010808905963
O           0.55876444452512    1.00726005839962    4.36610181910900
O           1.68410771117739    1.48012321589040    2.58723109208639
C           3.77423849579965    0.18455662231259    3.91198879499220
C           4.75022121880797   -0.71229716740883    4.38698813527247
O           8.28020616434529    0.14959472521138    3.71979786354987
H          12.11079703298249    0.01113876168940    2.81829815460410
H          10.60629406767914   -0.90498371573770    3.33006202026356
H          10.83050450707001    2.10878051195090    2.77962553917740
H           8.38873844940015    3.36423537436458    3.16288753231714
H           2.89780782188777   -6.72850453008966    8.08730343393923
H           5.39831924917296   -8.35912219675630    8.80239706603227
H           1.43097341511440   -8.10389979104923    9.41983203814775
H           2.41612478386121  -12.19687270624566   12.05621020340651
H           5.33623157395706  -11.92660154791259   11.14564845955834
H           2.84377824210793  -14.11935511580737   13.27772155944456
H           6.93650098054275  -13.77922002354997   11.90255302745912
H           6.63226624632602   -8.23027404403633    7.25749849562623
H           8.10004280316985   -4.08001451554385    4.98809585483867
H           2.64103935533469   -3.29565311937563    5.22289822858438
H           4.05243930293247    1.14913925922143    3.52068608012136
