84
 SCF done       -157.235832528515          0.000780266727
C           4.04778270151344   -2.23221197539470   -2.27119099103516
S           3.83977587807496   -3.49175350664553   -3.39764338664097
C           4.87776584529574   -2.65732702836469   -4.50301944782637
N           5.13903115863946   -3.24147247633451   -5.75883246018575
O           5.86989346999469   -2.63609434289702   -6.51595580110368
O           4.61041726870879   -4.31139448109859   -5.98786387836073
C           5.35077751337851   -1.47133041544924   -4.01337793168121
C           4.87191712495053   -1.21119808413071   -2.70681974244349
C           5.17476271885724   -0.05978940998007   -1.89692822875387
C           5.97379926298410    0.95570058469703   -2.27458816665583
C           6.28817284840378    2.09288860597401   -1.46963211857013
S           7.36275981922246    3.31014834752835   -2.09595942966978
C           7.26290329331520    4.24961534287154   -0.64134001454888
C           6.41482917214151    3.62196599653402    0.27849473645234
C           5.87409689400090    2.41517321292142   -0.19613658488171
C           6.11063452772287    4.10563077565380    1.56108513392104
N           5.83440782691317    4.45899969239441    2.61830299734452
C           8.01362316493423    5.44532325784723   -0.54744641831389
C           8.05372205801075    6.26580207387074    0.53640813043094
C           8.86653709499654    7.42379016518123    0.57350668359832
N           8.96390869791330    8.25028699943090    1.66942066637801
C           8.30360414781524    8.07744747258217    2.94141889337539
C           8.99094824532844    7.02154705631510    3.80322485248684
C           9.86866304087154    9.30747745875038    1.45512895814202
O          10.12386276808730   10.16053768316555    2.27918386560377
C          10.33689653156256    9.09797730241000    0.10304475136888
C           9.70481537086840    7.94315975612810   -0.41388498085259
C          10.19037180081669    7.75412078832176   -1.75910708046038
O           9.94716109880172    6.90999164486211   -2.60137245864451
N          11.10165700345574    8.81017684709723   -1.96607542321818
C          11.72344102781089    8.96527291010804   -3.25858669901956
C          11.09093908269613   10.09810391251808   -4.06344418792605
C          11.20035357495717    9.61921744533410   -0.85477644031151
C          12.02573312008083   10.74664025291425   -0.58968252900588
C          12.97415079276744   11.33266282038425   -1.35341941496403
C          13.79387612895208   12.44566856549008   -0.94251074053279
C          14.73596838479575   12.95209155334701   -1.84280243764448
C          15.56418330692664   14.00638783734467   -1.50333789303362
N          16.58993874298642   14.33329682142134   -2.46143705997532
O          16.27801990437687   14.32129834256444   -3.63333813291420
O          17.70891999840585   14.55005868082359   -2.04625741252971
C          15.46934537678581   14.64420543973533   -0.25434843764262
C          14.54655438547030   14.10240715893724    0.65217706652738
C          13.73514935789639   13.04183041316951    0.32719625090560
C          16.20545029481027   15.82588045092849    0.12838478088071
C          16.62175075574438   16.80651561425303   -0.69448634692773
C          17.31048293098863   17.97561924339031   -0.25470328565889
S          17.32050393924873   18.44021261159156    1.41782639862120
C          18.18471592258899   19.88001193378424    1.01721680835298
N          18.52585404809309   20.76679440456011    2.05065360497797
O          19.11791087154403   21.78464831477045    1.74713403248742
O          18.19873049672794   20.44945744332379    3.17999077261354
C          18.45354589773180   19.99648209770552   -0.32301338914872
C          17.97325292511479   18.90199197606102   -1.06145914891982
C          18.20439951158209   18.76566236822482   -2.49159833314922
C          18.47284675923819   17.62591283366656   -3.11641307864982
H           3.55318162329501   -2.28735253467150   -1.32059553410475
H           6.00691511554282   -0.83615324770589   -4.57872004300069
H           4.71142173669695   -0.04870913315346   -0.92080013334602
H           6.43712902611009    0.94394268182194   -3.25075648027158
H           5.20528000919117    1.81087301869453    0.38990616890903
H           8.60721553008509    5.69646943805218   -1.41769512370454
H           7.46449268440543    6.03687573799723    1.41069940645566
H           7.25384682327039    7.81912051723928    2.77896923541318
H           8.35618559639173    9.04879058276466    3.44122258449238
H           8.97450778781583    6.04881724034649    3.31703861237408
H           8.47862553014162    6.93993730101569    4.75735409809352
H          10.02522780926869    7.30411405368587    3.98437065060055
H          11.55917974659381    8.01624751914029   -3.77856437258195
H          12.80014626831504    9.10927252371792   -3.13790768227701
H          10.03937600570778    9.88293842129457   -4.23719460556580
H          11.58872119998819   10.18963200078649   -5.02495138037650
H          11.16480548210486   11.04674241973060   -3.53635286998024
H          11.83667853103424   11.13618205016773    0.40215516604892
H          13.17943889785161   10.97462226106648   -2.35022345680388
H          14.85015549362900   12.50572199434603   -2.82064723658517
H          14.46305222261003   14.55511521717854    1.62862598419140
H          13.04406674927734   12.66886604740620    1.06572910575992
H          16.37649996178877   15.93730171729057    1.19203694981172
H          16.42642388505906   16.77086745204731   -1.75758706636559
H          18.99131012854574   20.82925720619659   -0.73944748072141
H          18.20324463421250   19.69992097557870   -3.03891269582587
H          18.55823373812509   16.68599052519382   -2.59594858877620
H          18.65013189701926   17.60199522221732   -4.17786308456739
