115
 SCF done       -217.027150868971          0.000498749447
C          -0.86031718793043    6.73199032145003    3.07540480020683
C          -1.52644026271854    6.91846041883322    4.22596196776753
C          -2.92410966153309    6.52093475233106    4.01239413327729
C          -3.93389803709334    6.58855148061330    4.97910443443602
N          -4.76334355734072    6.62337203373294    5.77236723582023
C          -3.06447799951268    6.07063379692693    2.73618781418759
C          -1.77317697117002    6.16077075607692    2.08484648126963
C          -1.40609168201361    5.79541061027822    0.81565020470065
C          -2.17539177962739    5.05425648924536   -0.21426066603972
C          -1.42257963370031    5.06280533034199   -1.36670043045737
C          -0.18795001871430    5.74963442750934   -1.10953719367752
C          -0.16237352422201    6.16089910921813    0.20123850119733
C           0.82549593546629    5.94926566562520   -2.06026852430123
N           1.65407710607534    6.10947052160059   -2.83704093616116
C          -3.39809407584103    4.38953991007091    0.01603225785747
C          -4.16406234935396    3.77129633177292   -0.93062471558145
C          -5.40347590055388    3.15147334703808   -0.64552620812826
C          -6.08349010755831    2.43356516825167   -1.67420881512097
C          -7.36068611362003    1.79810357201709   -1.47207552805208
N          -7.98993755523428    1.22313390772399   -2.51156716595671
C          -7.40281593329820    1.19854170129943   -3.68443075716357
C          -6.10384787695498    1.76706321863037   -3.86673101486689
N          -5.49491217221218    2.37282883023665   -2.87484132676117
C          -5.46206819927108    1.69277154607606   -5.12858284766708
N          -4.96701881964987    1.61633640758008   -6.15835301387106
C          -8.07568503304731    0.59011615264051   -4.77470463081529
N          -8.59263428165844    0.09417354458360   -5.66789153309936
C          -8.01460068250841    1.85268881656470   -0.22225294860655
C          -7.33688937845686    2.54687052012103    0.80424822332046
C          -6.06762037071223    3.19759757622630    0.60502750762681
N          -5.65915468401047    3.80435672975949    1.72395824518097
S          -6.73701317384163    3.55739083336773    2.88967610231788
N          -7.76128452509170    2.65504006067341    2.06337165899769
C          -9.34154304455870    1.40368163045547    0.06027284272889
N          -9.95139262798615    0.24162742702804   -0.30402696012833
C          -9.35060813745597   -0.90368637848830   -0.94661565272876
C          -8.27151668771053   -1.53762885537277   -0.07517779009706
C         -11.25965986277305    0.15908707274591    0.22224311137259
O         -11.98176395653971   -0.80452453068380    0.06244618406915
C         -11.45183478056649    1.41085632310250    0.92412842479673
C         -10.26017000325528    2.14367884750823    0.81939427746060
C         -10.47029688220153    3.44974610319120    1.42618574536351
O          -9.76186524990069    4.42761993129178    1.51791421945069
N         -11.78788436939054    3.38993613291144    1.90820372537871
C         -12.36579863104044    4.49049239370728    2.64586705638826
C         -12.29458343964689    4.26111323863667    4.15257709152868
C         -12.39229659137180    2.18900758158591    1.63528485687288
C         -13.68953235861325    1.85806900042252    2.04977535226308
C         -14.21897772543217    0.61207893222921    1.81269708954110
C         -15.47339969772703    0.10629927241256    2.18634416379160
C         -16.69270186065507    0.70239040746574    2.56844891646813
N         -17.01143458167525    2.02888439794289    2.90173473468658
O         -18.19285927120488    2.32876184623509    2.91019126643650
O         -16.11795316054905    2.81479315996489    3.18533677263331
C         -17.71597705472627   -0.28762309404799    2.54900948000768
C         -17.17981664466007   -1.48635856041034    2.16640280713822
C         -15.78363931590118   -1.31602908975247    1.96209304042962
C         -14.84444748552484   -2.32599985816508    1.77193620971032
C         -13.52615494693963   -2.34621975206313    2.29063947009103
C         -12.99155192734496   -3.59952054655995    2.11651310236854
C         -13.92803187908019   -4.40974967509565    1.42748480388923
N         -13.66890496679732   -5.74158603360494    1.07602722767488
O         -12.56296178534794   -6.18452870162466    1.33368608987214
O         -14.55602718274336   -6.39823679907331    0.54392822516090
C         -15.08260947947959   -3.64754790348834    1.15931183301168
C         -16.13703487611982   -4.04262174176657    0.33715249073711
C         -17.08529000311196   -3.23142308598060   -0.24896427274392
C         -18.17932217655365   -3.69887733431458   -0.98887973074321
C         -18.87186076025447   -2.95563469484977   -1.93362425049128
C         -19.74220235457334   -3.82600229076312   -2.64709904626539
C         -20.61183274142515   -3.42766932985709   -3.67502233480379
N         -21.32008832467847   -3.10077351337826   -4.51578634915904
C         -19.59560583946179   -5.11759817209877   -2.16749775997078
C         -18.68418978205697   -5.08864443774201   -1.07411773865820
C         -18.47881493724392   -6.10985898944116   -0.17564793553467
C         -18.71000681219065   -7.55102054232392   -0.40483492553968
C         -18.50615999368444   -8.18865286887640    0.77561813772195
C         -18.17939931665718   -7.19924879717040    1.79358923863740
C         -18.13072059992206   -5.96339605896498    1.21330094944192
C         -17.96634376110967   -7.49076414390235    3.14598373161431
N         -17.79705236228754   -7.72808452731792    4.25655122876720
C         -18.94405734853096   -8.15735690642489   -1.69565871603758
C         -19.52387640621220   -9.34167474686263   -1.87147258056723
H           0.18266496890471    6.91330705932056    2.90591123782853
H          -1.14842964985784    7.29411586391873    5.15802636375830
H          -3.99066778505439    5.76888344829699    2.29018986426187
H          -1.67077911734105    4.60716261854617   -2.30647746118193
H           0.62703918219085    6.71870464738840    0.66617739174296
H          -3.75154038164889    4.34140669641163    1.03175755535953
H          -3.84841238033668    3.72864648540906   -1.96276285427287
H          -8.93892231108629   -0.59841074675720   -1.91122781433867
H         -10.16533154855410   -1.61339321288664   -1.11268803751076
H          -7.45608393202043   -0.83934174221377    0.10416917023289
H          -7.87255800003075   -2.41716238746977   -0.57225632860604
H          -8.68648604838358   -1.83957553525311    0.88379759883485
H         -13.40046477083339    4.63802113085300    2.32860874341415
H         -11.78032994129580    5.37439694271081    2.37883455279700
H         -12.87479429285352    3.38809494839705    4.44038520498183
H         -12.69534364232651    5.12752263512263    4.67015059572706
H         -11.26206261416774    4.11619490112745    4.46169111635051
H         -14.25760153750647    2.59144153395526    2.59977132773789
H         -13.59776324975924   -0.09085314328974    1.27326202952794
H         -18.73641766356254   -0.08853790530970    2.81732616739884
H         -17.69835226253928   -2.42478748910818    2.13865235379094
H         -13.07147739129152   -1.55061758563808    2.84777048738176
H         -12.03050510813768   -3.94551967104446    2.44761775249757
H         -16.14260007337134   -5.09525090336997    0.07918784580020
H         -16.94085471207269   -2.15794618734812   -0.23598655003029
H         -18.74102390123487   -1.90995202860553   -2.14111433288512
H         -20.17857184924642   -5.96496902880119   -2.47376504581870
H         -18.53846513138017   -9.24520784194525    0.96041157339513
H         -17.98372274410714   -5.03243220074684    1.72516202307674
H         -18.59418646621967   -7.59700540350540   -2.55247796459100
H         -19.89848567006854   -9.91956142230966   -1.04387431021518
H         -19.65397748174362   -9.76495009174213   -2.85195942043486
