120
 SCF done       -213.638427947331          0.000884836857
C          -4.46335026412033    9.76834429133017   -3.55385638720951
C          -5.52706349915163    9.92440957408875   -2.74240934978255
C          -6.63112799530233    9.12903573544101   -3.28620671666452
C          -7.92844046290384    9.03851675562167   -2.77870146327586
N          -9.00123859404885    8.90063088136081   -2.39064079962660
C          -6.18520090675305    8.45872841009618   -4.38933535006130
C          -4.79837136631339    8.79911685443166   -4.58542852301496
C          -3.91293538964118    8.26421938353096   -5.50061777250146
C          -4.02903873304448    6.96315501932969   -6.20285295704435
C          -2.92864694706773    6.85717134399966   -7.05434117509801
C          -2.12864499008865    8.01364002401238   -6.89315527833327
C          -2.69081380893941    8.83926772539719   -5.92141094551943
C          -0.93968187378351    8.27565434652780   -7.59319856028324
N           0.03305129285249    8.49003893843718   -8.16165939267281
C          -4.93555457192458    5.98963656866364   -5.80490321457001
C          -5.04453029781965    4.67496938798080   -6.23565568848647
C          -5.81599695336502    3.74654244276021   -5.55136128759128
C          -6.33908060008312    2.52118723644607   -6.04252148253401
N          -6.08425574357988    1.92380955897950   -7.28468617205420
O          -5.25456428998115    2.43520269621974   -8.02215271843024
O          -6.70518395268210    0.91055808155977   -7.55783404389300
C          -7.25153918783513    2.01237638961243   -5.10804877975953
C          -7.31533867920583    2.87469536649182   -4.02042005571227
C          -6.42103290562830    3.93226979192601   -4.21732816912137
C          -6.04108214320328    4.90576244557218   -3.26397997028028
C          -4.71727969562782    5.30791297030341   -2.99672021794126
C          -4.70630619756509    6.15650291565658   -1.90297221563850
C          -6.02425651866715    6.32508384649757   -1.45232003933959
N          -6.37742534649819    7.16835762194056   -0.39006286307951
O          -5.52327793423510    7.93793732332364    0.02098496612765
O          -7.50575058053760    7.09156469858419    0.07236176420058
C          -6.90013311666313    5.57688484260490   -2.28794240019885
C          -8.29003121878101    5.65304025379124   -2.28867373956996
C          -9.06633477190296    5.25519273929669   -3.36196206951929
C         -10.43872440312576    5.08007772251312   -3.47304683222279
N         -11.45639786833139    5.12793713458619   -2.55566393531753
C         -11.38075997059808    5.52927198354343   -1.16777836163465
C         -11.41298357326276    7.04511524909903   -1.00627778769240
C         -12.68536273653493    4.74463746056849   -3.11757141785135
O         -13.72591203749350    4.69766747040273   -2.49920094421565
C         -12.37751924942565    4.42238993155097   -4.50841799481689
C         -11.02189644045598    4.64313200463865   -4.69135967579571
C         -10.66120652044154    4.28420430457653   -6.05199499445710
O          -9.59906907308640    4.31443577571390   -6.63424440642535
N         -11.87279954772539    3.86137546415907   -6.61930136313364
C         -11.93004289588218    3.36648712873667   -7.97645980975618
C         -11.88200478976144    1.84207258785803   -8.02708591686828
C         -12.91571184549001    3.91773236839744   -5.72419528073507
C         -14.22069732711343    3.52227930222322   -6.00632768419368
C         -15.24142916021630    3.59784841658013   -5.08026506123801
C         -16.54897996149263    3.16553723312089   -5.32218987878285
C         -17.07346617149892    2.55692729385814   -6.46868676146159
C         -18.42920684956510    2.25751773842445   -6.25779240471865
C         -18.75249716867499    2.72719469719436   -4.89674376826711
C         -17.62649995355639    3.25948062716432   -4.35256375117683
C         -19.99473565914888    2.63567872646713   -4.25869942634166
N         -21.00354949589614    2.56437246138370   -3.71395370941249
C         -19.29802261915356    1.61830901469297   -7.13690434410506
C         -20.65121289446193    1.30061325090294   -6.94064994159742
C         -21.13681377323691    0.62200920523525   -8.05734287932070
C         -20.04431504235224    0.51295515551843   -9.01184658377253
C         -18.94419561345985    1.10540884980068   -8.47909929846155
C         -17.69837875434164    1.19410695050047   -9.10819606844963
N         -16.68322877859265    1.25017639538078   -9.64439769936019
C         -22.44983958535309    0.14389498475840   -8.20737078539785
C         -22.89490698952532   -0.61168013533750   -9.25922795139952
C         -24.20394189486350   -1.11317331434707   -9.41016072164816
C         -24.52662695454249   -2.24595968227289  -10.12793778469157
C         -25.88432925323529   -2.59601186243274   -9.84496895679949
C         -26.55668071006805   -3.69441811813145  -10.40248393666729
N         -27.09906679635014   -4.59752797648106  -10.85652773519117
C         -26.41400992155351   -1.69019751695038   -8.94846603011954
C         -25.43138856109869   -0.68457653091869   -8.69900027134398
C         -25.67590562219339    0.54098143005174   -8.13030477994662
C         -26.80623036301128    0.90265478582923   -7.25187008013107
C         -26.77416093517740    2.24858693349494   -7.08096022563590
C         -25.65835805569401    2.79258974472715   -7.84433072802223
C         -24.97778689145854    1.76550590945674   -8.43269052841001
C         -25.36186017673360    4.15721606039143   -7.94884894292054
N         -25.12387941221579    5.27725631661521   -8.03280916781447
C         -27.67453380234492   -0.04290778945942   -6.58637587823805
C         -28.89221303289413    0.24701324615741   -6.13714345423076
H          -3.48943418403507   10.19810101433123   -3.42393670267044
H          -5.59597994806453   10.50900167861189   -1.84516897673538
H          -6.80066852880289    7.88016253198182   -5.05129332009233
H          -2.70245996006517    6.03570414117397   -7.70744754607091
H          -2.29932235257573    9.78765558566462   -5.60625889420835
H          -5.61311891921001    6.28214139349185   -5.01998724835889
H          -4.57192717259131    4.35471221734281   -7.15505739747815
H          -7.79847065001501    1.09661311645544   -5.23258352368402
H          -7.89338519796542    2.71561001592488   -3.12970200388825
H          -3.85083902294515    4.94353278090246   -3.51557342420967
H          -3.84594040295286    6.60871574931003   -1.44736311273068
H          -8.74195884162742    6.11641258460168   -1.42276477278188
H          -8.55221028426284    5.02617791340631   -4.28780416959880
H         -10.47763352818497    5.10434774010605   -0.72383240270748
H         -12.25482010345458    5.08947672268607   -0.67828957572450
H         -10.60211291418409    7.52427085259782   -1.54808461278071
H         -11.31711775225508    7.29686059072726    0.04566905652518
H         -12.35757599742937    7.43840590448486   -1.37410755565629
H         -11.05448272927509    3.77634135104147   -8.48681434488534
H         -12.83196304774967    3.74601525262489   -8.46286065185800
H         -10.94789650427682    1.48350223460987   -7.60181981705249
H         -11.94083404028449    1.51035374640694   -9.05940977833331
H         -12.70954923528568    1.40463273865559   -7.47304613676143
H         -14.43351136073818    3.13578255231056   -6.99201405814916
H         -15.02786799401501    4.00295092713882   -4.09931646641923
H         -16.53467861430192    2.33827239466669   -7.36858572747890
H         -17.52448650482663    3.68524945194724   -3.37184404715368
H         -21.22391482938303    1.53837660038514   -6.06582504068645
H         -20.10071013848512    0.04814580984548   -9.97825069684825
H         -23.12957533657128    0.37199663016865   -7.39663876279696
H         -22.18067234353970   -0.94824862149476   -9.99999387115425
H         -23.86505174295170   -2.82086127742118  -10.74892462015557
H         -27.43431025366833   -1.66289587931862   -8.61769994941941
H         -27.42448494934669    2.84454356419987   -6.46961368918925
H         -24.14905347385368    1.85836045434194   -9.10758335759831
H         -27.26994347141082   -1.03635701819709   -6.44229514151494
H         -29.33466078710181    1.21790558305165   -6.28108626715287
H         -29.49323950596719   -0.48483388044857   -5.62657238465829
