67
 SCF done       -125.098274726504          0.000422552118
C           3.91100843608248   -4.61118056243803   -1.37909977448155
S           2.22846680726985   -4.81991897644410   -1.51456050737008
C           1.84167936749551   -4.17365847919819    0.07915395318643
C           2.94200831408392   -3.76206553156885    0.80961675912585
S           4.51883284622613   -3.94303733570606    0.05697344812301
C           3.14321919173521   -3.17592505433232    2.12377427268403
O           4.30034983855434   -2.93319420207832    2.44390560554811
C           1.98852478279730   -2.88126404452020    3.03989711414436
C           0.47742426130933   -4.13183982455677    0.46028690193392
C          -0.54180741235162   -4.53967067563848   -0.33687849012070
C          -1.93970959112067   -4.51011342947328   -0.00521452745584
C          -2.87700762348571   -4.89082881968999   -0.97330595369887
C          -4.23880838101824   -4.85540184638244   -0.68534389622082
C          -4.59901233207230   -4.43299112741955    0.60468862269361
N          -3.72950742335159   -4.08227611767439    1.52950724568680
C          -2.44414705094404   -4.11613832733806    1.24459052703178
C          -5.25681275595265   -5.21511943906089   -1.64585173752103
S          -6.93426341741496   -5.02388733481832   -1.22969590933971
C          -7.46605100467195   -5.58916468657003   -2.76413870711759
C          -6.38599841628671   -5.92680717761984   -3.55407818024233
C          -5.12243958499023   -5.72427708676449   -2.92590205879479
O          -3.90125267164018   -5.95282687237699   -3.45131545858357
C          -3.76297374436530   -6.34976598708567   -4.80979378459410
C          -2.28742590607893   -6.24050017301907   -5.15874532619036
O          -6.53119529568299   -6.46568317099786   -4.81016137925794
N          -7.13911062223820   -7.77163846771017   -4.87701608607407
O          -7.22713859701908   -8.16445022544232   -5.98198433557097
O          -7.44845821811278   -8.25407548520787   -3.84498326661662
C          -8.87604117389961   -5.66844708462194   -3.08314297866080
C          -9.80950487128476   -5.83598936041471   -2.07282424056440
C         -11.17915474549995   -5.91757301880579   -2.38678919557511
C         -11.51175483098486   -5.83568271756835   -3.76341084053979
N         -10.63042565952067   -5.65286878279428   -4.71184503301059
C          -9.34798188110845   -5.55957583297854   -4.40322478528292
C         -12.15608430081153   -6.07393088489820   -1.39279405028503
S         -13.85389214763236   -6.18709881605280   -1.74040376473979
C         -14.39400354946109   -6.28236172745663   -0.08725536367366
C         -13.43081908595442   -6.30012155912293    0.87717093308015
S         -11.76724470264358   -6.16646515360952    0.30718193658203
C         -13.62469199880043   -6.55163869115973    2.31506576891220
O         -14.71669630000785   -6.69449471357067    2.82092579183073
C         -12.35004126338885   -6.64120285085129    3.11362235593818
C         -15.84049436538797   -6.33832352442380    0.05299806322642
C         -16.55301325450990   -5.67771762490921    0.95442867264942
H           4.55456791265619   -4.89741772504651   -2.18427742201743
H           1.30362037669342   -2.17487786642115    2.57474302486406
H           2.38175190864496   -2.44474543045421    3.95496610441303
H           1.45380198608241   -3.79693000818129    3.28484335789030
H           0.26020107198421   -3.74590428603515    1.44029843324707
H          -0.30899737028405   -4.91711918630743   -1.32587882551599
H          -2.53829877953105   -5.20526911340760   -1.94646136308401
H          -5.64046336030195   -4.38134310952980    0.89524577558039
H          -1.78976102882638   -3.82013181654490    2.05239315752367
H          -4.36000774526058   -5.69913609434082   -5.45775362614769
H          -4.10119839370122   -7.38595557619122   -4.93518613710196
H          -1.94926032283742   -5.21437649252906   -5.03942542605511
H          -2.13358229673376   -6.54775266952203   -6.18870653647427
H          -1.70084225249698   -6.88100668183550   -4.50515731762078
H          -9.48588145128016   -5.91734545048768   -1.04459642956196
H         -12.54379634843637   -5.91851282579022   -4.07862786038697
H          -8.68228050039090   -5.36583536350024   -5.23140470787083
H         -11.72781861210108   -7.45252648576074    2.73939098448312
H         -12.59306750385678   -6.82172091560024    4.15731929907556
H         -11.78613800939500   -5.71409925318498    3.02337008614385
H         -16.33376174056563   -6.92026404409685   -0.71567862615263
H         -16.09879239193554   -5.05839301359305    1.70639343143084
H         -17.62631481398596   -5.75116378729363    0.96886228255806
