98
 SCF done       -204.651484059959          0.000883714210
C          -1.67350547932141    0.97276830450023   -7.74826525295471
C          -1.26978421171744   -0.17527619744819   -7.14107986243371
C          -2.04126640644144   -1.32866745087905   -7.48764006607200
C          -3.15062302140036   -1.07463914711308   -8.36380435464393
O          -4.03709477918828   -1.76242006812821   -8.76643979274120
S          -3.03981773851672    0.73855239674671   -8.76290549729360
C          -1.51885903203102   -2.40009647491935   -6.79550786471023
O          -0.48998951536193   -1.98823326893805   -6.00965538045343
C          -0.26013300063991   -0.61894884901839   -6.18746771206221
O           0.60706604055496   -0.04681576469307   -5.59903566028346
C          -1.90148570053189   -3.76984550942700   -6.79267190650009
C          -2.31510546094356   -4.53683581609646   -7.87203962341472
N          -2.35991632527110   -4.18598775548993   -9.24651664459233
O          -2.92071315511826   -4.96298141920961   -9.98969629257424
O          -1.79743631646727   -3.16860782610911   -9.60034178605107
C          -2.53671218895744   -5.88509404058056   -7.43540368570138
C          -2.20941504327422   -5.97527466657671   -6.11925190442684
C          -1.81850471954106   -4.67833826827985   -5.64573247933511
C          -1.57317681135097   -4.32569126384232   -4.32962832198008
C          -1.85394274889558   -3.07919295728942   -3.70714983621000
C          -1.70530734844248   -3.22256607103969   -2.35664788319917
C          -1.27896101622082   -4.55289089711404   -2.06120240993423
N          -1.02392954067464   -4.92769741006392   -0.72764903053355
O          -0.96367572239133   -4.03421348329996    0.09512094553820
O          -0.90181870832885   -6.11184530088945   -0.44964857191181
C          -1.14324798317616   -5.26562998224566   -3.26612006576690
C          -0.53238586228672   -6.47545345772258   -3.61609034929774
C          -0.18559927869023   -7.53198597400321   -2.80129017455866
C           0.41649184494048   -8.68220617857753   -3.31698109361864
N           0.72182888802886   -9.78897745410493   -2.56577157564735
C           0.46355271614275   -9.96301574040366   -1.15295075677806
C          -0.99326972351045  -10.32682037338445   -0.88450737035465
C           1.29072112114423  -10.81049298148864   -3.33236189496818
O           1.62749106749641  -11.88830544333492   -2.88704014429420
C           1.35353782902725  -10.25967010353160   -4.68082498971901
C           0.81885973683056   -8.97261127163742   -4.64596666328761
C           0.89342230320196   -8.41659202455216   -5.99192209516533
O           0.54199860101631   -7.34597862260046   -6.44015448922362
N           1.49493387694234   -9.42651414714535   -6.75219375196148
C           1.72489185381210   -9.26335118340852   -8.17124036726690
C           0.63811457823721   -9.93831189302411   -9.00192790421647
C           1.77070856390843  -10.54347918359994   -6.00752591535529
C           2.34265210096937  -11.70887355637034   -6.52681694686164
C           2.52316565652021  -12.82359490438346   -5.73849867395982
C           3.06485587877836  -14.06953751483191   -6.08122181061947
C           3.89747019330905  -14.52496297034760   -7.11850447492365
N           4.30049814519506  -13.90767793120898   -8.32040352532573
O           3.70855534631361  -12.91194182846817   -8.70864247183544
O           5.21622392164510  -14.42687539587303   -8.92761842331992
C           4.38814300851681  -15.82321156718333   -6.78497929667554
C           3.89020418930676  -16.20057169101764   -5.57112655299637
C           3.01721998399228  -15.17594179500403   -5.10019975812968
C           2.13103209965373  -15.26284681193703   -4.03955738181269
C           0.82407765067873  -14.68583463318223   -3.99742431189401
C           0.14134838441996  -15.21068335099755   -2.94004369393766
C           1.01171562338621  -16.08762380313061   -2.21967433584698
N           0.61807636795398  -16.73265122690606   -1.02775125364730
O          -0.52594232432460  -16.55202200894266   -0.65475240837766
O           1.42799384693402  -17.43389856492558   -0.44758977988548
C           2.25289574100999  -16.13054675093892   -2.85179831013494
C           3.43134205023720  -16.72822044357075   -2.35847478963851
C           4.69353616002920  -16.33610853166475   -2.69361924484946
C           5.87019648994972  -16.94950388089596   -2.22032297399148
C           7.14828033152645  -16.56455012007963   -2.56373551431784
C           8.20308811892213  -17.32996232982317   -1.97674822330079
C           7.75934990778816  -18.40016122195625   -1.10860806368007
O           8.35718591351331  -19.21170615108336   -0.47418731663620
S           5.91804175319884  -18.32751331843795   -1.13053725533616
C           9.37136208423513  -16.80207498367874   -2.43784682940691
O           9.15291328950587  -15.77460008155522   -3.26788850845403
C           7.76888686900361  -15.56364485050924   -3.40393913315504
O           7.31496936771789  -14.70398781731156   -4.10772576872517
H          -1.23831007585539    1.94977409827444   -7.65345224665389
H          -2.88903227988509   -6.66431799691250   -8.08382875529543
H          -2.33313584325698   -6.83935080741179   -5.49675169967866
H          -2.23278432010171   -2.20776581048665   -4.20287287803240
H          -1.88201607157532   -2.47945252233048   -1.60132328356911
H          -0.31072424790829   -6.57466732699465   -4.67067499583326
H          -0.40472333477302   -7.49359851488650   -1.74548616555330
H           0.73587658466860   -9.04941217920940   -0.62029788110324
H           1.11419808029889  -10.77688609123027   -0.82269922019783
H          -1.65991008914974   -9.53172404974044   -1.20880647212977
H          -1.13537341563755  -10.48274869825569    0.18045274715087
H          -1.25545805084782  -11.24356921693212   -1.40738475481325
H           2.70821692687544   -9.66406614592939   -8.42619072873716
H           1.71766251115853   -8.18666181413269   -8.35950048740593
H           0.62429164156976  -11.01140061947699   -8.82810308488866
H           0.82862758827480   -9.76193856768365  -10.05611114896695
H          -0.33708795733107   -9.52696013071903   -8.75234208574243
H           2.61685463827837  -11.73162996659860   -7.56994834671482
H           2.20849763438565  -12.74870776639501   -4.70553880858826
H           5.04115117025797  -16.38726172095073   -7.42417759248572
H           4.03053679993215  -17.15281319851722   -5.09835750907748
H           0.40913853095784  -14.05525376182968   -4.75915149126142
H          -0.87805791944917  -15.02371191378330   -2.65987801547464
H           3.30689083645755  -17.50019157491894   -1.60697129774417
H           4.85851262027866  -15.48493756162227   -3.34186147713808
H          10.39474771088542  -17.07070088594212   -2.24867481314654
