90
 SCF done       -180.458721377843          0.000659113169
C          -2.20309590883056    0.21338778197017   -9.31553577500899
C          -1.85315713618919   -0.76636378436779   -8.44352551245354
C          -2.57741481646762   -1.99208040022431   -8.61299467353794
C          -3.58552023094545   -1.96681836178195   -9.63281882894566
O          -4.40966842282130   -2.75822284667501   -9.97673796301014
S          -3.45578640087896   -0.27551844871509  -10.39035680173516
C          -2.12179054782572   -2.87508511945825   -7.66280911255899
O          -1.17623923614270   -2.27891018778873   -6.88546848413405
C          -0.94330903367553   -0.97130918684786   -7.32596644161539
O          -0.13624127102639   -0.26700567779541   -6.79450542310941
C          -2.49270755745465   -4.22347210542491   -7.39547324895843
C          -2.79266170413775   -5.22594941690311   -8.31694422330283
N          -2.67215518537121   -5.18496034238548   -9.72463571901953
O          -3.14929093251663   -6.11276508726548  -10.34720615259026
O          -2.04435732534555   -4.26826566611451  -10.22311685857411
C          -3.06795019097910   -6.44111018010638   -7.61497093028290
C          -2.88297330737358   -6.22168848382398   -6.28506494272740
C          -2.52576026277149   -4.84250313497068   -6.08567745264887
C          -2.40123640988947   -4.20688841531247   -4.85384769509373
C          -2.80214826476575   -2.89915147037447   -4.51614663578487
C          -2.80366539473658   -2.77157648920137   -3.14479729153964
C          -2.33497484233466   -3.97446790811368   -2.56019364997003
N          -2.16732128755387   -4.15049298807816   -1.18069584038224
O          -1.73721822213821   -5.22265717571903   -0.77371084607069
O          -2.47325361083788   -3.22197670493598   -0.45270994392125
C          -2.01232964352208   -4.88028546209298   -3.58935781703695
C          -1.30521576084222   -6.06752374088525   -3.46854017294058
C          -0.64711509157625   -6.71107863790818   -4.50488590948134
C          -0.03343446972520   -7.94698101582502   -4.39089887643539
S          -0.07231482184261   -8.87293837704560   -2.91470792049034
C           0.84789321923153  -10.16725090467455   -3.59828621195571
C           1.16950245273243   -9.90578422619425   -4.95023551893321
C           0.66955956533544   -8.65585731610767   -5.40414139727556
C           0.87650514600337   -8.25579917076713   -6.72716542482397
C           1.57402354511145   -9.07115845549917   -7.59357465015764
C           1.80351066626769   -8.67619750596416   -9.01419624971557
C           2.07714348457645  -10.30323963423294   -7.12989659931644
C           1.88625273632201  -10.72261562359201   -5.84054107096879
C           1.18397239537893  -11.31524833940675   -2.84954519211313
C           0.76913758146513  -11.51999550672265   -1.57327723345627
C           1.08494051504983  -12.66339778980237   -0.75956700044263
C           2.25728844047670  -13.39927419285717   -1.00840586203393
C           2.59045006677859  -14.42636394562786   -0.16293227063394
C           1.78554250642239  -14.75161287505158    0.93736947539322
C           2.41855948484636  -15.89386439695696    1.64450707973919
O           2.04877458497516  -16.48823268384215    2.62237443953104
N           3.57138468301706  -16.17696026137225    0.92343981244193
C           3.75443245602192  -15.34890993977440   -0.17115334028025
O           4.67249103034375  -15.40830538304409   -0.94818602202908
C           4.50884299183621  -17.21303242350062    1.30464040403054
C           5.55105060281769  -16.67995552048765    2.28098718479964
C           0.62750856958824  -14.06108952321491    1.19791185117949
C           0.25289718883212  -13.01257451769375    0.34130426140846
C          -1.01020898368941  -12.34232906736614    0.52993745384147
C          -1.71729088054278  -12.27890750618681    1.67888083374168
C          -2.96265676817228  -11.60281427365970    1.77375950190384
C          -3.74195724489174  -11.48260967988939    2.89442828108376
C          -4.95909469307482  -10.74156573481195    2.72622565433297
C          -5.18113038246940  -10.23461645549402    1.39183370871423
O          -6.06967314802268   -9.60523153391188    0.90936213968944
S          -3.71875710902104  -10.77715441363554    0.41328720180098
C          -5.58340824440641  -10.73387901633537    3.93411951481974
O          -4.88096388194511  -11.40210156279608    4.85744331333400
C          -3.70129980816870  -11.90798596226825    4.28033029573578
O          -2.90610321911096  -12.54713880959043    4.90722532215844
H          -1.79427122308564    1.20343430015380   -9.38838960511424
H          -3.35553904590350   -7.35408133882373   -8.09952641132015
H          -3.07038874881699   -6.91743928715140   -5.49049367786258
H          -3.16754175506167   -2.16564061156798   -5.20781509502935
H          -3.11167297286442   -1.91238174717999   -2.57809746519949
H          -1.21011525511954   -6.47245850697989   -2.46706550486774
H          -0.56948753009017   -6.21532113946947   -5.46183456376657
H           0.48610747034600   -7.31127828698449   -7.07333203672172
H           1.35021273836294   -7.71430153283753   -9.23584709566659
H           1.38206208151004   -9.42390963679993   -9.68480375351941
H           2.87145232797680   -8.61624070024848   -9.22056175472781
H           2.62325357185090  -10.92881524841965   -7.81996219095129
H           2.27720556591504  -11.67292436242316   -5.51305961132291
H           1.77140983331648  -12.06473000692199   -3.35990391783083
H           0.14940288493632  -10.75624897202799   -1.12272589834826
H           2.91101900987949  -13.13968037186062   -1.82572860084144
H           4.98884061397588  -17.57013071894571    0.39053949489197
H           3.93463945308632  -18.02051584881611    1.76493080204352
H           6.11164774743335  -15.86599087841850    1.82692796091037
H           6.24237742769053  -17.47373019650542    2.54837342640823
H           5.06817739063659  -16.31742188187349    3.18547148410709
H           0.00279663750541  -14.34459322301877    2.02967516131976
H          -1.43950240666675  -11.85449380668841   -0.33571160142184
H          -1.36574516572256  -12.71563148737414    2.60354201414906
H          -6.51221291040151  -10.29371132208571    4.24886589886893
