90
 SCF done       -184.672708084575          0.000846502006
C          -7.39979361827401   -1.17840997169980   -4.16718805581593
C          -6.42686792848335   -2.12267586206365   -4.07905941653384
C          -5.66886868916886   -2.30177961325130   -5.28100957704415
C          -6.01840381501045   -1.41814215709473   -6.35704867986256
O          -5.54846907968510   -1.23244908095971   -7.43686185610479
S          -7.44974999699039   -0.42243941055047   -5.71092494574520
C          -4.73086223338906   -3.27838765738363   -5.03647147115279
O          -4.82998169338307   -3.70740424023989   -3.74863348182076
C          -5.87559710811096   -3.04587317507161   -3.09640430832509
O          -6.14788702820441   -3.27661838760694   -1.95589801976042
C          -3.73776861852489   -3.85182267482618   -5.88043475366727
C          -3.85180149469285   -4.21360845087220   -7.21329117856090
N          -4.99656047930054   -4.15836162397662   -8.04811142396515
O          -6.07927474839994   -3.96917293825734   -7.52770779826249
O          -4.82161230823822   -4.35485441795734   -9.23229725133666
C          -2.64044718574082   -4.86544684492665   -7.62627134747035
C          -1.80794393358092   -4.96393022927428   -6.55571809686509
C          -2.42418648246792   -4.32359510283358   -5.43084044885005
C          -1.85761812913568   -4.01206377081120   -4.20533671280670
C          -2.13751377574182   -2.83913409449039   -3.45103205747269
C          -1.28308440186953   -2.78208955477129   -2.39003175480264
C          -0.48220263006715   -3.96657243395445   -2.36464687412480
N           0.53658432080743   -4.10051977719032   -1.40525117874725
O           1.34046131383632   -5.01854080782083   -1.50057179211624
O           0.58671534235559   -3.25776910330569   -0.52700975561149
C          -0.82370720527786   -4.77281766908796   -3.46366516583514
C          -0.51156096770498   -6.10171560726513   -3.78948246133357
C           0.06348548130429   -7.02048406798244   -2.94436554645364
C           0.44040982045204   -8.31124510359195   -3.33966929934495
N           0.96450615832418   -9.24020921459422   -2.47124609721863
C           1.20529792952590   -9.05673201691683   -1.05673594175428
C           2.45849589792128   -8.22797595216365   -0.78833305416702
C           1.31041162807165  -10.43210404964521   -3.11367137519828
O           1.77959480432081  -11.40031462852472   -2.55015610936336
C           0.96271660860912  -10.20555680619110   -4.50661615824549
C           0.42525750891743   -8.91081845261857   -4.61348728489329
C           0.10360073539867   -8.67767469714332   -6.00689387914493
O          -0.37007561718639   -7.72122442069903   -6.58314882910589
N           0.48265019931531   -9.86728526691299   -6.65795023365632
C           0.26917736602816  -10.04094212146001   -8.07599229957664
C          -0.97492287746664  -10.87666376679284   -8.36431833420536
C           0.99274887342460  -10.78869491979866   -5.78315364684504
C           1.46942380913647  -12.06683829667772   -6.16767752700401
C           1.95054262614725  -12.95486902496322   -5.26264385247638
C           2.45553741085032  -14.27010368305993   -5.54830157922219
C           2.58678838311865  -14.78576365691634   -6.84074277253965
C           3.07050326218884  -16.06386288067192   -7.04381830348746
N           3.27689395245641  -16.48908785720410   -8.40845444903846
O           2.66669052630388  -15.89712835769610   -9.27098791618858
O           4.06754150978848  -17.38597783344211   -8.60464745492072
C           3.42881003389454  -16.90367626968154   -5.97424924675201
C           3.32106300261759  -16.36635381474092   -4.68504844557153
C           2.85442509326443  -15.08929267628388   -4.47738626009626
C           3.81844601015702  -18.28095283145134   -6.17742062633507
C           4.78610586585403  -18.89498568065336   -5.46673125348097
C           5.14750040304656  -20.26000264488949   -5.65271859004163
C           4.56651471556528  -21.23992656907994   -6.42050191339597
C           5.23315236120949  -22.51317914704448   -6.37424416531176
C           6.40211306269196  -22.56958826635042   -5.52832289590795
O           7.16356254023303  -23.44982882164562   -5.27295233547501
S           6.55889887412190  -20.88352753599450   -4.81222657682587
C           4.53359473707518  -23.35896047017467   -7.17496577498154
O           3.47540539737498  -22.75006086081259   -7.72465236292104
C           3.42265858519167  -21.41772116822702   -7.29514308391492
O           2.54088763299935  -20.67974143472643   -7.64148147772253
H          -8.09561768028126   -0.88293013938264   -3.40468136247614
H          -2.46836780546893   -5.21598256264500   -8.62572495365986
H          -0.81387940341226   -5.36266372755998   -6.57730903662446
H          -2.81606789802169   -2.06438082078824   -3.75023766870525
H          -1.18556379962542   -1.98815427391359   -1.67338533823624
H          -0.80187223355917   -6.43704814897387   -4.77505800016754
H           0.25655037513319   -6.75270123389056   -1.91916208296593
H           1.33279587157003  -10.06165556610325   -0.64443118071912
H           0.32737767282806   -8.59704060512927   -0.59603169949101
H           3.31912596252316   -8.68858019889179   -1.26724984050595
H           2.63941879232693   -8.18805737860728    0.28192085334917
H           2.35372328537691   -7.21097681513868   -1.15760437786030
H           1.15703426896362  -10.49241859715727   -8.52627616887030
H           0.13941172417757   -9.03662881313124   -8.48800576432508
H          -0.89401566651143  -11.86774721500214   -7.92367543264249
H          -1.10351068113044  -10.98146707193554   -9.43756011260679
H          -1.85571668387760  -10.38734822754640   -7.95637795849249
H           1.43407713291467  -12.31042196058167   -7.21897918131763
H           1.95712537391300  -12.67382109761494   -4.21725591452427
H           2.33704710694506  -14.19921808876258   -7.71152732475366
H           3.58173379241284  -16.98821143224678   -3.84283999413761
H           2.77895031030890  -14.70118752306740   -3.47265498256650
H           3.28938393504323  -18.83825409323899   -6.94012990608241
H           5.38122062403669  -18.34492611243403   -4.74982283926059
H           4.68880388533325  -24.39317837088981   -7.42287291573765
