86
 SCF done       -169.243263426013          0.000414684996
C           1.51250649715490   -2.43206401009036   -5.94710999119486
C           2.74323579807568   -2.88196916961328   -6.44022059259235
C           3.61173771848493   -1.81125135207761   -6.38214505851990
C           2.90226796069498   -0.67642696032080   -5.84643776102315
O           3.51094301768209    0.53230552343487   -5.65747692530163
C           4.80451308325712    0.54925107763152   -6.04973672628025
C           5.46511069022429   -0.50456268543888   -6.55863312599086
O           4.91886638519350   -1.73466072523746   -6.74960662931312
C           1.60706937809069   -1.06278395096152   -5.56046582009320
C           0.55676516991614   -0.21185654315645   -5.02844193877395
C           0.27138710983094    1.05534684391318   -5.45261298074670
C          -0.85237392221217    1.57495313019336   -4.68884854705617
O          -1.35350804035084    2.81648935704043   -4.91351598252507
C          -0.69711075561612    3.50327343478275   -5.89289996446620
C           0.33308858633625    3.02107441638216   -6.59832626276800
O           0.86872183006390    1.78128391403024   -6.43704684562337
C          -1.24590448490768    0.63435506539978   -3.79173775185183
C          -0.37605507042611   -0.49411178942870   -3.95063721169342
C          -0.37819339679817   -1.60053778753474   -3.11940691832344
N           0.52325130152665   -2.62195038953807   -3.19011740801128
C           0.31293417096937   -3.59598542547594   -2.25040746790646
C          -0.81031610106687   -3.17786040696740   -1.48331294799095
C          -1.24477250969300   -1.92747416874780   -2.02131762466921
N          -2.28567708979827   -1.27340421511983   -1.51673517667100
C          -2.87574730702790   -1.86452628095002   -0.49237165021833
C          -2.44673173234347   -3.09081235920621    0.03350985761670
N          -1.41728833311991   -3.75809195513426   -0.45116576019692
C           1.13328577348763   -4.71769626093447   -2.21271989426740
O           2.12114285229504   -4.79284806530475   -3.14308228496129
C           2.80449347921764   -5.95917276669822   -2.95712497462045
C           2.24104155919790   -6.64594319768905   -1.87656565402860
C           1.18447729453089   -5.87104924954696   -1.39800953291137
C           0.35734484843304   -6.20660086600837   -0.31589807715353
N          -0.26533848562073   -6.55835318064158    0.58036760014764
C           3.86223865379755   -6.22418308829749   -3.82495843548400
C           4.67481313373541   -7.33614990543448   -3.80259281277776
C           5.71259766777587   -7.49814504334104   -4.71259491943575
N           6.56465154361005   -8.56725938254289   -4.73256157654772
C           7.52247095293467   -8.48242000772935   -5.70889561516267
C           7.25902492728461   -7.25313478684619   -6.40434760699374
C           6.13422325508128   -6.64203409434640   -5.77895160005333
N           5.63976670423432   -5.47614068024485   -6.19430393315587
C           6.27109783314855   -4.93359728135342   -7.21939950826671
C           7.37756902193329   -5.53506706976680   -7.83207152568403
N           7.88031657901123   -6.69205998022536   -7.43714474057814
C           8.50635833520308   -9.42147862598005   -5.95102434761688
C           9.42046858239969   -9.35304114067467   -7.05646244765785
C          10.14335000592695  -10.50128549845103   -7.05339844857477
C           9.71508550178898  -11.32357420054596   -5.93130049112654
O          10.28023100682276  -12.53297826625499   -5.66969976199298
C          11.24268905730266  -12.88779928628056   -6.56270244951418
C          11.63451026523142  -12.13622845676909   -7.59840355884041
O          11.12186266967336  -10.90805797347609   -7.90136543465265
C           8.73530121801538  -10.66791448079175   -5.24144586706158
C           8.07429310923524  -11.16072254130887   -4.04760081387549
C           7.62006325196298  -12.45006105563768   -3.84258791919988
C           7.07077842118301  -12.53636344205200   -2.51533350548062
O           6.52956575370334  -13.68699713959078   -2.03194151693463
C           6.58007915909044  -14.71996018559538   -2.91373494732530
C           7.08704531674260  -14.63606075121480   -4.15526252491563
O           7.61544570062711  -13.51569173523470   -4.69872061058778
C           7.20862584928532  -11.30501805261431   -1.90597035701539
C           7.82846062405529  -10.45874671927336   -2.83322298433393
H           0.60503501535334   -3.00787839301014   -5.94052340514999
H           2.97091048515772   -3.86644589136328   -6.79627018592426
H           5.27308377274492    1.50888563943640   -5.91183279947605
H           6.49744651831251   -0.45386744969551   -6.85845867669991
H          -1.09776601644720    4.48989485357260   -6.04593405708566
H           0.82717854286062    3.59031457775963   -7.36651417774628
H          -2.03454138623820    0.69401866917228   -3.07067874108498
H           1.25019228029224   -2.66754460634200   -3.89613848148063
H          -3.72404625496292   -1.34377679563875   -0.07069159171469
H          -2.95101044537936   -3.54830199603544    0.87252910556399
H           2.55959992114268   -7.59166244867809   -1.48759417479556
H           4.05304121405849   -5.47430278000687   -4.57959980053001
H           4.52483835132119   -8.11196998866993   -3.06392358228944
H           6.53643102638678   -9.34164359290171   -4.07879576903076
H           5.88384646931102   -3.98472741341414   -7.56266413401626
H           7.87246981292917   -5.06646275352712   -8.67136517804931
H           9.47535522430483   -8.53666410080735   -7.74624786648018
H          11.67058741191183  -13.85227102089151   -6.35092454766049
H          12.40082949290166  -12.44578907651713   -8.28702136808779
H           6.16511072887396  -15.62952014774731   -2.51563445923578
H           7.10634654930957  -15.47779773003598   -4.82642232136026
H           6.91257464122936  -11.05286180256475   -0.90748696942374
H           8.15341526822301   -9.45460388120189   -2.62941852735394
