113
 SCF done       -222.919758483005          0.000510943936
C           5.18742962110659   -5.97450333527168    0.52763638845958
C           5.96244695790561   -4.88575548958211    0.89398409306231
C           6.16526764374925   -3.59395581439222    0.19324656484089
O           5.69942495584866   -3.21155038765114   -0.84128179389977
N           7.05708193439891   -2.85996328270919    1.00175587983617
C           7.43328640628350   -3.56654898024255    2.14865823847884
O           8.17887890075697   -3.18357968882858    3.01059840088145
C           6.72350690184728   -4.86982566743939    2.06627892626577
C           6.75510383166969   -5.94270567175420    2.94289744699794
C           5.98230049659366   -7.03327034041213    2.57660919495286
C           5.21997456547082   -7.04874998749334    1.40274680770820
C           4.52181948649707   -8.36306183936752    1.31952751175595
O           3.77618924365244   -8.78014273499924    0.47825641959569
N           4.91943975518230   -9.04550081411700    2.45905070892355
C           5.79121690957142   -8.33777403147812    3.27198912361505
O           6.26384842326780   -8.73100186481521    4.30152606161033
C           7.48431929911698   -1.59953412619931    0.60802740762628
C           8.36478723055097   -0.84675173306020    1.28697853718795
C           8.84008337979272    0.42755544941846    0.85352308353999
S          10.05302129632639    1.20518341249769    1.83731610203055
C          10.21725124332307    2.56753126475275    0.75204161150686
C           9.33529535831807    2.41598480190188   -0.30235596115523
C           8.56653623116576    1.21995485300152   -0.24616271821244
C           7.64681260053544    1.15464758466984   -1.38329909332975
O           6.84559694642275    0.29234380621471   -1.65408793843412
C           7.88056769318391    2.41885215128805   -2.19124993946390
C           8.93106852113797    3.23091009251309   -1.45065257420547
O           9.30780068918325    4.33432626670346   -1.76058169101652
C          11.20133248361020    3.55074384779902    1.05123367589312
C          11.68828906413761    4.43054629511503    0.14584071884089
C          12.73929995388993    5.37303982655286    0.33133587110520
N          13.15244553388317    5.98847438474336    1.49050622643315
C          12.54484248022700    5.92686047583118    2.79791164764114
C          13.29431533191837    4.97067369778303    3.72393103097206
C          14.26284044102873    6.83641801468769    1.27035993032179
O          14.77745974595672    7.49606033822992    2.14728870604629
C          14.53775228968070    6.69984803345556   -0.14202034550870
C          13.57115121970844    5.81351503465405   -0.68851614394714
C          13.87959681101211    5.62349597834006   -2.08734549823189
O          13.35209045946631    4.97213714871803   -2.96187099030799
N          15.04769101916200    6.39935001171589   -2.29101977317853
C          15.52783876395659    6.65147660029242   -3.63098854169015
C          15.27715997932550    8.09506532687551   -4.05573031101750
C          15.43909461963571    7.03478793107966   -1.13964633811964
C          16.60906238321307    7.84923185862123   -0.98363566970675
C          17.80792781657219    7.58025149813173   -1.52793451880727
C          18.98569136229260    8.38265406632128   -1.35427109859284
S          20.49543667128159    7.56192219109673   -1.11768649502327
C          19.15019860736340    9.75689011820266   -1.35823247844249
C          18.09352545129845   10.72884869435198   -1.70378681696650
O          16.95722468304347   10.42495420932543   -2.02384832809439
C          18.56764428183031   12.10342115789008   -1.65990439865681
C          17.86482729945645   13.27070772071664   -1.86187910150847
N          18.71549802080616   14.31722607195010   -1.73503617300604
C          18.34105778015319   15.70741281811049   -1.80639325803773
C          17.95731424609741   16.24352265807407   -0.42892360504779
C          19.95620062298972   13.85929663392923   -1.45094999858469
C          19.91548502573939   12.48189132067323   -1.39481135636362
C          20.98496014591270   11.53689952913389   -1.14692451710060
O          22.15419870817527   11.85745851433559   -0.99520827541892
C          20.50508144425136   10.13949898078800   -1.12486934234639
C          21.33961109192228    9.05516466224896   -0.95796673158727
C          22.76017608064727    9.08585741755197   -0.66511346469997
C          23.71870772521592    8.39099438138410   -1.40371122726198
C          23.55199336950817    7.50266802932356   -2.57672179215101
O          22.54522940219046    7.17062976499733   -3.14892179877137
N          24.83891097061216    7.09376540091506   -2.93656275137147
C          25.82184306447778    7.65094692143775   -2.11757747202706
O          27.00729375716030    7.47340662546797   -2.20145987135014
C          25.08818207415462    8.49663660297888   -1.13877904617800
C          25.59318877264141    9.30261156069559   -0.13519332935289
C          24.64336118599640    9.97779749604911    0.61870421476900
C          23.27462954286301    9.86128697420074    0.37982411911554
C          22.55364024172634   10.66574123398234    1.40795571890175
O          21.37824006912736   10.76380857871144    1.63311644592333
N          23.55757755425867   11.26926125502305    2.14605794653790
C          24.83880105750094   10.91592026734576    1.75871596110332
O          25.85541944923054   11.30102878344410    2.26639274665940
C          25.02814811349345    6.21695513662137   -4.01333526095103
C          26.18992143344611    5.75015959801648   -4.43585474753075
H           4.60157588234034   -5.98563508533272   -0.37752662508287
H           7.34297981227149   -5.93062749144815    3.84678704090450
H           4.60258439820617   -9.97995039892534    2.67641690660153
H           7.03645043523371   -1.27781421619154   -0.32530846137827
H           8.78433820005113   -1.20268164921690    2.21665522103340
H           6.95549037985052    2.98502336612708   -2.31765348866369
H           8.23158669247221    2.17111850150183   -3.19589195156255
H          11.61646563482449    3.48613620639241    2.04659361525184
H          11.32346167448462    4.39490829275473   -0.87203144265553
H          11.49599454890284    5.64405450297443    2.68890728948705
H          12.59944198471417    6.93539957970707    3.22038391268908
H          13.35139815291659    3.97018709405922    3.29995519705634
H          12.79302285183853    4.91795361467604    4.68655843548149
H          14.30652033170590    5.33583253704964    3.87654227566842
H          14.96527282797044    5.96585123018892   -4.27221443220182
H          16.58924377564523    6.40851650012175   -3.71147444702543
H          14.21340960662747    8.31689566232907   -4.01273843112831
H          15.62041891211055    8.23890769681235   -5.07657627729903
H          15.80439065179435    8.79133368413489   -3.40739684525903
H          16.49440580375676    8.68274962009512   -0.30534830221659
H          17.96260993229922    6.65624153963370   -2.06955060145510
H          16.82515217285128   13.40462045946865   -2.08606687592396
H          17.49730978167257   15.80426107025463   -2.49414472178017
H          19.18549314492873   16.27456207541637   -2.20655174385693
H          17.11694305091996   15.68397594613242   -0.02561003428533
H          17.67703001783641   17.29038929599723   -0.50272999915094
H          18.79422253067644   16.15320610949968    0.25915510777605
H          20.78936712951240   14.51880323067803   -1.30930058513983
H          26.65076807023007    9.40036629950830    0.04895670445494
H          23.36836164336494   11.89888234842351    2.91292869435257
H          24.08437456449950    5.95405067565562   -4.47321823626853
H          27.12305261290653    6.01549329664735   -3.97416328755952
H          26.22333656488838    5.07725283240022   -5.27333450391519
