116
 SCF done       -221.286821612600          0.000603053383
C           7.98753888707100   -5.03790279261842    8.51440448796211
S           6.50903842473490   -5.88009496157750    8.62687010259485
C           6.57629885411792   -6.45071595767013    6.98873509601142
C           7.74163675162498   -5.97596840457249    6.38109181757662
C           8.54132767787408   -5.16608165726030    7.26015330933280
N           9.70070972936414   -4.61920920468527    6.83529082555152
C          10.05831106365358   -4.84658091562799    5.60308620558396
C          11.31056167457458   -4.15959436213079    5.14399831121816
C          10.97844149588117   -2.92482433205118    4.29671660003405
O          10.25650772370566   -2.01667403842701    5.09325816276735
C           9.28249967276732   -5.69110336646860    4.73494528747116
C           9.77411138739994   -6.14530911419296    3.38148795445063
N          10.58417195459475   -7.35260594509077    3.48603680681718
N           8.15885496601968   -6.23525000732492    5.12834988258686
C           5.55092240336034   -7.27957460255939    6.46878021302736
C           5.53332022894178   -7.72403024002913    5.18940676516915
C           4.54926167101777   -8.58387255082614    4.62634380594029
C           3.46939910585137   -9.18417879857282    5.22471980036120
C           2.71005137871357  -10.00993549186159    4.35999888494118
C           3.26417674746480  -10.00746651238714    3.05140445391168
S           4.67768219003903   -9.00503665370499    2.93455523483124
C           2.78380899007612  -10.71352307320276    1.95542054694696
O           3.49956543710123  -10.52061004117132    0.82210220556822
C           3.15917593930628  -11.14672649708827   -0.39081991100512
C           1.64763948929672  -11.52090030980932    2.17240326919576
C           1.09491365910692  -11.52367506646330    3.48093266612709
C           1.56442614192756  -10.80633358881058    4.57058381339223
O           0.83174141517663  -10.99134396147719    5.70082693285991
C           1.15914397489184  -10.35268027349053    6.90884525497468
S          -0.28393428557510  -12.57686604527555    3.61425767743365
C          -0.12869001005922  -13.03287038117114    1.93135401087686
C           0.91940166091586  -12.38271743542134    1.32277642365576
C          -0.98404067324534  -13.96083557880974    1.28073157070666
S          -0.84858066609155  -14.16322362184188   -0.43735919718599
C          -2.07708087487493  -15.40222191133044   -0.45694815070834
C          -2.57545901287564  -15.60863917178690    0.83393822659671
C          -1.96239916086765  -14.80673119839484    1.80072401957428
C          -2.33253372811990  -14.84828902309199    3.24810445520450
C          -3.15428768949691  -16.08937854029102    3.60297163590978
C          -2.25243507299744  -17.30500666422941    3.76239627751163
F          -1.39331012680975  -17.49819023948050    2.75220209157434
F          -1.50091661342340  -17.20177009940739    4.87008028069602
F          -2.94961869814160  -18.44694524874457    3.88355222632304
C          -4.26470830448430  -16.31684330033822    2.56544233522276
O          -5.08134015058814  -15.16627643156633    2.61840721426287
C          -6.38671003416394  -15.34444376072376    2.12472818530894
C          -3.67480259334512  -16.56537237764942    1.17062118189628
C          -2.36347484159814  -15.96967044255568   -1.71302933720817
C          -3.11662767184052  -17.08820444027484   -1.95467159241635
C          -3.38609426233766  -17.70141535811324   -3.19283904416950
C          -2.89032146822953  -17.54903419878995   -4.49844430581347
N          -2.14180820634161  -16.53316681667769   -5.09758825788024
O          -1.95928883783411  -15.47411592965325   -4.50715483498614
O          -1.71386802858359  -16.74418416996065   -6.22350177545270
C          -3.28236077817854  -18.68927075116214   -5.27315224528180
C          -3.99281728088056  -19.55129507125697   -4.49444110894469
C          -4.15529143426452  -18.96504688915666   -3.20823936091123
C          -5.02125710652072  -19.39201280324263   -2.21113113920645
C          -5.79206462417767  -18.53460568086008   -1.36470147955693
C          -6.72551052650111  -19.27970011287059   -0.70929972489526
C          -6.53992721198270  -20.65545942300471   -1.05439506125034
N          -7.30254411226193  -21.67982093860172   -0.48760511422611
O          -8.14928140628293  -21.36089085039355    0.33527280179541
O          -7.10303050134702  -22.83677173564500   -0.83575466541519
C          -5.48521277928415  -20.76082363371513   -1.96713655567802
C          -4.87853390716562  -21.95762227879531   -2.41058932693758
C          -3.60160116419370  -22.07028975330396   -2.86364416615883
C          -3.01711714063791  -23.27942388189692   -3.30301647593831
S          -3.87824736723183  -24.79360357783448   -3.40046025771809
C          -2.50079685461313  -25.60544535658956   -3.98585710364308
C          -1.40500997258687  -24.78182455772580   -4.11686078146960
C          -1.70033317242439  -23.43971579917190   -3.72468350387539
O          -0.82855124415846  -22.43626353329785   -3.75219300474234
C          -0.05791369692269  -25.12902504829855   -4.58640655964449
O           0.82187413972236  -24.29812516939441   -4.65741951107152
O           0.18044750499452  -26.39626957113821   -4.93717801176067
H           8.36875106459349   -4.48723082745108    9.34960671019695
H          11.94440226447507   -4.82889867689963    4.56167632692624
H          11.84504612520320   -3.82416433361117    6.03292449263984
H          10.38553189146000   -3.21363780722261    3.41567562785201
H          11.91945561655769   -2.47468468372001    3.94784561117874
H          10.08760749819244   -1.21363858662979    4.59057216308120
H          10.37381393759353   -5.37877546779324    2.88912428966374
H           8.91154583343777   -6.38132486201333    2.75478350564597
H          10.02506044118635   -8.11067409470420    3.86300325483955
H          11.36969601898857   -7.20547958653560    4.11233062241348
H           4.76475634372168   -7.54769986465589    7.16148259875619
H           6.33287938686983   -7.41321130409061    4.53279967844605
H           3.25618936107036   -9.02710773047212    6.26354431546834
H           2.15627397581603  -10.86424602950006   -0.72200607835746
H           3.24142497392076  -12.23461227651431   -0.31797551225276
H           3.88963576543041  -10.78175813791133   -1.11200825028242
H           0.40001856358538  -10.68146717533805    7.61809257607615
H           1.11196485516512   -9.26406886675967    6.81354282154553
H           2.14399978193594  -10.66022192407116    7.27189604225032
H           1.13614398637707  -12.56217198705670    0.28712220237494
H          -2.93188900592215  -13.96538026852605    3.48321846776691
H          -1.43510793456435  -14.81718687728825    3.87057595721085
H          -3.62486259424816  -15.93834964019035    4.57989829112155
H          -4.85932795513738  -17.19928415873483    2.85452894860503
H          -6.91803478363296  -14.42050536280084    2.34241032368355
H          -6.88784822016598  -16.18142845954031    2.62432665761350
H          -6.40143601287794  -15.51771642455247    1.04342572427761
H          -4.47786038287406  -16.46910288653986    0.43828480560308
H          -3.30312015234265  -17.59286423345006    1.12389898471765
H          -1.91664195331366  -15.46002343014873   -2.55600175995913
H          -3.52003801756911  -17.62489892659262   -1.11118472995881
H          -3.04064412921284  -18.80044835440312   -6.31332255600467
H          -4.46197284246357  -20.46096453185422   -4.81472143821504
H          -5.74160251873368  -17.46256125666820   -1.38328815860412
H          -7.49473475216609  -18.93170652823019   -0.04618567768115
H          -5.47024902065658  -22.85786606372812   -2.29359277863414
H          -2.93708838219626  -21.21730322680111   -2.88276654753981
H          -2.58180085013112  -26.65434787210367   -4.20151297623462
H           0.02853985371701  -22.78797466704901   -4.08951475721451
H          -0.59012707880693  -26.96927108392562   -4.83940752567696
