80
 SCF done       -174.175693792985          0.000556103545
C           2.02831177594796    4.27858625984405    5.25721052101733
N           1.48397901938475    3.88017911904845    4.06411083632583
C           2.44359046490290    3.14975443276809    3.43859692411851
N           2.40247700874193    2.54804007495950    2.25808064510642
C           3.55003854506280    1.93731568743412    2.01162059824266
N           3.91607743117779    1.21369632221356    0.92455315789639
C           5.20948175046719    0.79143242426510    1.15795927307015
N           5.68171319664530    1.19920760743649    2.31219196796464
C           4.69192186135948    1.92031804696201    2.89259498793763
N           4.70485992572214    2.53138846151281    4.06566940877490
C           3.56933119297808    3.14926442705006    4.33586941943745
N           3.24007401381690    3.87140271389651    5.44789168432698
C           5.96026230453985   -0.00582790924307    0.25294499205646
S           7.57168337567296   -0.47384945033429    0.68738489068984
C           7.78448723122763   -1.36664913111113   -0.80581398228611
C           6.63365046504458   -1.27544488947585   -1.57795749895994
C           5.61160953098958   -0.51174562502106   -0.98558897744081
S           4.13275884965586   -0.35292975594695   -1.89165268287546
C           4.66045464570772   -1.33883832568064   -3.29264251762583
O           3.95726210093467   -1.53729205661471   -4.22921332760215
S           6.31371260265249   -1.97125734903886   -3.13913769881167
C           8.95097847975731   -2.08590866560349   -1.13587364382749
C          10.03826239660048   -2.14850492768393   -0.31707414883289
C          11.24848190494250   -2.85193154979020   -0.51203116591322
C          11.89246606048383   -3.35381177938023   -1.64799105428445
N          11.47319888486528   -3.47188573425657   -2.98286280310759
O          12.34315573296855   -3.65155284346588   -3.81869542060151
O          10.28291411511289   -3.41118543109485   -3.25648819351682
C          13.22549204721305   -3.75375077163691   -1.29253345219437
C          13.43343631300212   -3.50522089803299    0.02583209471466
C          12.22671846175796   -2.97647691215180    0.58625814980175
C          11.96461495323854   -2.80792796021240    1.93504161738294
C          10.70173399903415   -2.99552784806878    2.57856320437220
C          10.89539303122980   -3.06182318621759    3.92641636622804
C          12.28058028218400   -2.84482584431001    4.20689568507635
N          12.78784022026922   -2.80368141462507    5.51505852765855
O          12.00360361017678   -3.01168613431294    6.42481075281867
O          13.97780839441526   -2.57537002186118    5.68175068235356
C          12.96744878938723   -2.65091136937581    3.00586305204218
C          14.30949762367737   -2.24210866135950    2.88082245397257
C          14.84496150291785   -1.57918181818656    1.81462375211132
C          16.19986601598895   -1.20878677797309    1.70094732101975
S          16.71534087466996   -0.24297547612835    0.34171283278253
C          18.37653322428599   -0.22474714484777    0.86320003550030
C          18.50177376029280   -0.94579528940600    2.04488195702907
C          17.29530986350774   -1.49680875554917    2.51289283627444
S          17.36643344078613   -2.43855111768423    3.97498666772103
C          19.11481938212782   -2.25143655665666    4.24319169571315
O          19.69690723988447   -2.73523999891363    5.15893138970089
S          19.92417206442411   -1.26066105940934    2.99664229806717
C          19.34233630715709    0.46128008695369    0.08820912194728
C          20.66211201077529    0.55841484604479    0.37273181843181
C          21.55859477936122    1.26876828152056   -0.47536256056409
N          22.91015236082714    1.36545138293339   -0.19285560084932
C          23.46523816012412    2.09487373355647   -1.18895132619879
N          24.72694320074451    2.45364610267879   -1.36227654927381
C          24.85854184052850    3.16678411342409   -2.47181413869953
N          25.97618486194783    3.72140641947229   -3.00980740152731
C          25.57190450285315    4.35131264145119   -4.15783459617863
N          24.30605818188425    4.24940193088613   -4.39878062535328
C          23.78949217978073    3.51134366603998   -3.37186486356015
N          22.53735268203680    3.14053657925462   -3.17646563761642
C          22.37396463585471    2.42557393039834   -2.07540979178205
N          21.23158015736351    1.89148557905367   -1.58459597834751
H           1.48151491962535    4.87660751207571    5.96008482293697
H           0.56291182112558    4.07835788252011    3.70934802153776
H           3.34954742304450    1.02382826642366    0.11344509529851
H           8.93463081958020   -2.61676099932624   -2.07767386753339
H           9.97534147641863   -1.59892230681262    0.61482440090071
H          13.91117069283540   -4.19280241343258   -1.99210673848631
H          14.30528978092918   -3.76804242120272    0.59150614883438
H           9.77809426701847   -3.19787951528493    2.07284174246523
H          10.15754788311312   -3.24805323246920    4.68358696369796
H          14.92118699923853   -2.40204239878368    3.75965584749901
H          14.20909444660204   -1.27186367413217    0.99558425825206
H          18.98776666857168    0.94714571265741   -0.81006885873367
H          21.08660784304589    0.09940550474359    1.25347602549221
H          23.39203911605646    0.97371782103406    0.59970077571276
H          26.90714450902674    3.67056288483107   -2.63012540509773
H          26.26005551069898    4.87842694699746   -4.78964721470643
