102
 SCF done       -207.321576773155          0.004963809512
C           3.66482415671810   -8.23696940908236   -9.62145757240826
N           3.81436123483643   -8.11129346656932   -8.26588680596715
C           4.37505910499489   -6.89116075878868   -8.06066887307397
N           4.70448061815507   -6.29228310003049   -6.92704628567985
C           5.21241625387127   -5.09476497831502   -7.14563469533603
N           5.67510769939209   -4.18025149414845   -6.26226508347516
C           6.09117071553334   -3.09036142538020   -7.00166713962072
N           5.93530672971250   -3.27271117290249   -8.29360707207129
C           5.38042893344569   -4.49264449522070   -8.45163445095463
N           5.03213504565848   -5.11077687559002   -9.56230843359530
C           4.53333314191050   -6.31669303351376   -9.37236667146283
N           4.07131239379769   -7.20858846706433  -10.29271992408073
C           6.72266910231439   -1.93180682253839   -6.46137474006655
C           7.35837619636732   -0.99076764814696   -7.24278049512444
N           7.21824955238164   -0.83595506407916   -8.66242000554780
O           8.19492222806931   -1.05568104307497   -9.33969239465073
O           6.15259328575067   -0.43895322519491   -9.05997733142661
C           8.17548171500807   -0.15172191500000   -6.41639995751226
C           8.06803409441662   -0.58002941531421   -5.13115709294069
C           7.11608931446737   -1.66592949986062   -5.07871756409130
C           6.52809424100387   -2.16183515157154   -3.93186347047524
C           5.15705799633845   -2.57012063221026   -3.80614114401790
C           4.85608555618056   -2.69280686693252   -2.48503923115498
C           6.04597988378659   -2.46137803681461   -1.71493408985022
N           6.08001732078423   -2.59857722916038   -0.31647843887502
O           7.13418429768054   -2.39740558945768    0.26741845012162
O           5.04014376259400   -2.90434285205118    0.23882080174623
C           7.09537333164652   -2.15029344101735   -2.57245078505151
C           8.46426239097915   -2.02126631142700   -2.22815076573104
C           9.49212532370439   -2.25128798946382   -3.08074304782549
C          10.87330834776791   -2.10418350892248   -2.73663379123620
C          11.43262989176832   -1.95347722176585   -1.51341122203251
C          12.91739057295720   -1.84653042697497   -1.64385496806343
N          13.61152792986896   -2.99300868260134   -0.97151903618712
O          14.45918876302538   -2.71510176811546   -0.16436427923702
O          13.28574207310630   -4.10091174695937   -1.30792530120550
C          13.13068558154443   -1.94566433467191   -3.13345760106237
C          14.49670144229279   -1.83565161388928   -3.72805744122878
C          15.35415805761258   -3.04596243411761   -3.49446619446134
C          16.49569439472567   -2.69437734883080   -2.87493923620602
C          16.50443841491225   -1.27461059712069   -2.64752159308812
C          15.34845113391514   -0.75588637226544   -3.12336212433230
N          14.93251310949274    0.58941195135155   -3.08480711430681
O          15.70935221506698    1.41293790258432   -2.64449671784968
O          13.80448686912479    0.83504532778303   -3.48302013427357
C          11.94475518615816   -2.12176664155195   -3.75276858237454
C          11.66404989583432   -2.23736055014699   -5.16446428079403
C          12.41504891824541   -2.91422042971858   -6.04282807554755
C          12.14607907896295   -3.00836800207420   -7.46687565810695
C          13.21006876126980   -3.23188126770695   -8.34504308636896
C          13.00985897637296   -3.23940464375784   -9.70618800082733
F          14.06058150464833   -3.50170888358782  -10.50003318208213
C          11.74537815255722   -3.04900236948975  -10.27375992203332
C          10.66532321572238   -2.92683999737510   -9.40189588487596
C          10.87584875349820   -2.89457789468621   -8.04082650357720
F           9.78921230552662   -2.79319843716534   -7.24149092479547
C          11.55314440254804   -3.01627672217454  -11.71258979877285
C          12.31612738999858   -2.28280866503094  -12.54871648271255
C          12.28400121089339   -2.27460981278368  -14.00677491571516
C          11.68082635392195   -3.20969343358311  -14.80121120032264
C          11.72458573628672   -3.19548194489992  -16.21211864521224
N          11.72723413811930   -3.23543209158150  -17.35842263839972
C          10.96931828307875   -4.33205018381960  -14.32460225651358
N          10.39617155634227   -5.27470320185488  -14.01109296436902
C          13.10317664961291   -1.16110138480905  -14.46194633849042
C          13.68102042275523   -0.52211538503272  -13.32755470633676
C          13.23679560077457   -1.19099851010741  -12.09615269179355
O          13.50126872125526   -0.87546115504997  -10.95874705958358
C          14.51685016859064    0.55021483420360  -13.45188679574478
C          14.82872041072313    1.03525729473853  -14.74064044251908
C          14.25093436199298    0.40586659142545  -15.88124685627518
C          13.37840942700930   -0.69387137438239  -15.72143897139437
C          14.57463148189866    0.89717447334517  -17.16316022378706
C          15.43238939609494    1.95313799151571  -17.31325664417888
C          16.00003955950255    2.57162141549970  -16.18949144889400
C          15.70309063240766    2.12363328452761  -14.93070438165989
H           3.24546386538872   -9.11574503261904  -10.07118204999830
H           3.56605217984649   -8.78051568684678   -7.55549821379858
H           5.73647244962345   -4.28916323538051   -5.26172098886372
H           8.75744942019984    0.67362270637045   -6.77967582925048
H           8.50371312198978   -0.11415744797773   -4.26898310874608
H           4.45096913548434   -2.58883545715457   -4.61471117925350
H           3.90236647287177   -2.91904534281561   -2.04684856662866
H           8.66788193931199   -1.78967417924036   -1.19141562847644
H           9.28563489862255   -2.58529596907526   -4.08830353536035
H          10.93771959450907   -1.94927899431098   -0.56130374269061
H          13.31664162898750   -0.93205306841512   -1.19623262669720
H          14.37471839716262   -1.65473763950992   -4.80320684415762
H          15.04522508064477   -4.03607934346013   -3.77348140850020
H          17.29179465358604   -3.35262347112946   -2.58104963618599
H          17.29587381406795   -0.72391702742928   -2.17385813524546
H          10.77092892682064   -1.72670936677074   -5.49466739652722
H          13.30255090140213   -3.43574199466828   -5.71078620416447
H          14.21008247054992   -3.36940360430143   -7.96472636571352
H           9.66488348634154   -2.79480214585391   -9.78223389683457
H          10.73078495243053   -3.60759985764279  -12.09193492182721
H          14.94018193155052    1.01658529875025  -12.57509774457459
H          12.94706133515449   -1.14187787535095  -16.60237441861494
H          14.13661479268219    0.41817513989237  -18.02604268239245
H          15.67905121751978    2.31785156325775  -18.29955534158556
H          16.67325824201934    3.40470625602786  -16.32710206807550
H          16.13458001703991    2.59602116462596  -14.06077684158198
