92
 SCF done       -180.690665489456          0.000742401445
C          -1.19898746312789   -3.33705518727774    0.87224798312124
N          -0.81492846003387   -2.07560641471825    1.23955340161464
C           0.23292488084796   -1.75169289029386    0.43794932214587
N           0.93806733044213   -0.63638948103326    0.37979382493432
C           1.86856192892605   -0.69182412479440   -0.55328132998501
N           2.79300406431088    0.21965998791092   -0.91233080858197
C           3.51656909510286   -0.32792668244325   -1.94439972979665
N           3.10696052106574   -1.54843534735595   -2.25281131589928
C           2.08122303373705   -1.82959161493255   -1.43231532338478
N           1.34330322836247   -2.92182803326374   -1.36552320573518
C           0.42387873718979   -2.89394330000603   -0.42188859843107
N          -0.50100792338549   -3.83903915797256   -0.09506897831888
C           4.62057462438850    0.30455843869925   -2.58702288966811
C           5.43456333360200    1.37392900275291   -2.18437959585564
N           5.28752770798382    2.31830990185916   -1.16045819026025
O           4.23603674812331    2.37100091825058   -0.52070523582083
O           6.21383536935064    3.07887951657003   -0.95890596440517
C           6.58149967833351    1.42995830881542   -3.04452788571268
C           6.50949209113292    0.41222072842186   -3.93992259250426
C           5.28130186184944   -0.30088313117132   -3.73042234427815
C           4.75514948173303   -1.24583786913035   -4.60613410997960
C           3.40247168728899   -1.37848033304179   -5.00299514196186
C           3.33956915840077   -2.16622062269493   -6.12378874967284
C           4.64810662336448   -2.61997708321668   -6.44994294701357
N           4.91125231202130   -3.47846634925779   -7.52872362634242
O           6.06462328399658   -3.83029538760536   -7.73381592124035
O           3.96589072005336   -3.81408190214933   -8.22072139091972
C           5.55493943500585   -2.10989547138533   -5.50752890408785
C           6.89269826967288   -2.47931730227237   -5.35666451684409
C           7.64494624118359   -2.32001738786512   -4.21321159126770
C           9.00594362008312   -2.64065859151014   -4.11875214692080
C           9.78260891610753   -2.52754439205746   -2.96632343637132
C          11.11416232714155   -2.89820751580926   -3.25811430999769
C          11.13039169253370   -3.26433641247716   -4.68878097541893
C           9.87673180341529   -3.10857795035370   -5.18732843169300
C          12.23668490936661   -3.70175984389828   -5.42809057474698
N          13.12426052534162   -4.06150709823045   -6.06163786689839
C          12.19604979435670   -2.91538302594775   -2.39718763738801
C          13.53832455025831   -3.25510681455505   -2.68758959426475
C          14.30481623439379   -3.12265747041092   -1.54565687231555
C          13.42412977181314   -2.68837247347544   -0.46681840275909
C          12.16618115205871   -2.56038093486146   -0.95894948087274
C          11.04914749732018   -2.16604890823008   -0.21512723589657
N          10.15136796278123   -1.84025529407963    0.42377984504228
C          15.70269698249208   -3.35729900392709   -1.46075267437586
C          16.41647785653802   -3.20291061961196   -0.32617936827219
N          17.77226004361088   -3.39686081550719   -0.19451009402931
C          18.42004994392962   -3.19103298916058    1.05358872547710
O          17.84063211373360   -2.86308870864679    2.05385156928771
C          19.83520383528259   -3.45560340197892    0.81651049883318
C          20.02787821315603   -3.79895440722717   -0.48035457733939
C          18.69296813163755   -3.77572995019145   -1.16947023460038
O          18.43855934688069   -4.02278800503104   -2.31755373127763
C          21.24392403540435   -4.12534669178028   -1.14789614121429
C          22.50735767564508   -4.09831611032630   -0.60231294402550
C          23.45636626515047   -4.47902636192986   -1.60432487646523
C          22.67144366340326   -4.75324870097752   -2.81949135384631
C          21.35931939507791   -4.53710912216266   -2.53858464867881
C          23.17247743155821   -5.16664366137702   -4.05994226384816
N          23.56285021688877   -5.50879276811753   -5.08437942293606
C          24.81942442316845   -4.55872882997289   -1.46905697777408
C          25.77597843154498   -4.92664377682169   -2.46414567074118
C          27.03557809519051   -4.86953797074023   -1.92684529337017
C          26.90917998415339   -4.45215291870572   -0.53199948636164
C          25.59826799765125   -4.26394965652066   -0.24296525372533
C          25.09232659602592   -3.86216497230992    0.99739545795656
N          24.70541911717991   -3.53069963541278    2.02736407704267
C          28.30111108034592   -5.14889582374290   -2.54399948998621
C          28.45841481396749   -5.53326784429643   -3.81331171104883
H          -2.00962437320883   -3.85037997318923    1.35145921076115
H          -1.21081947418467   -1.49547034143622    1.96130824083255
H           3.00209228691493    1.13486438184142   -0.50757533323626
H           7.34352629058499    2.18078106843660   -2.96244607176074
H           7.18714936275838    0.22800254907155   -4.75032081052625
H           2.57954892757022   -0.85597763469153   -4.55976989317584
H           2.46357789647918   -2.41600267711477   -6.69288716027565
H           7.32856912595513   -3.00654222564752   -6.19601610536896
H           7.17087070293248   -1.95684171416529   -3.31087948907306
H           9.42488802442633   -2.19942947102747   -2.01004878546734
H           9.57363683574311   -3.30069988705263   -6.19929503504603
H          13.90256204164506   -3.56050968809765   -3.64858886617889
H          13.72262074350719   -2.50159391664446    0.54732566989587
H          16.19387381761328   -3.66824510549922   -2.37107404865526
H          15.96542557893791   -2.89703876892032    0.60966506121062
H          20.56958356491381   -3.37380344055359    1.59527599939609
H          22.75905967525999   -3.83005015024154    0.40414602949107
H          20.53037633636613   -4.64552636743196   -3.21157746633950
H          25.52098557013814   -5.19971638428735   -3.46806142434602
H          27.73683772415893   -4.32086773332248    0.14113176170748
H          29.16818844752917   -5.02900986246135   -1.90663155595070
H          27.62106014437874   -5.66314612025439   -4.47722890927632
H          29.43398670208202   -5.72871879412480   -4.22311165678623
