98
 SCF done       -202.986712431561          0.000858352242
C          -5.39866796625271    6.03682103698957   -2.19763980593008
S          -6.81180904739153    7.00655476934504   -2.20934391010981
C          -7.92257649855842    5.53247157028261   -2.04905853792738
O          -9.10823813223462    5.63490340519129   -1.95224362677469
C          -7.05148106766706    4.38594279345896   -2.02983186118117
C          -5.65716312948895    4.70326226751413   -2.08846345355104
C          -4.77808442680180    3.56205500381335   -2.02721842555396
O          -3.59030130834638    3.46201700620195   -2.04713406804573
S          -5.87848752972880    2.08134948006465   -1.87978731525935
C          -7.33734326265513    3.04905643653481   -1.93494412722937
C          -8.62721196165731    2.42722441585829   -1.92112427079050
C          -9.67192041770972    2.61650659672853   -2.80080212214157
N          -9.71501554407559    3.45393507823212   -3.94475486329084
O         -10.78447863348427    3.55832719690449   -4.50638896172435
O          -8.68515553857561    3.98768170438741   -4.30747912717095
C         -10.74800623143255    1.71212843566759   -2.47214458364420
C         -10.34829179352985    0.92395407553481   -1.44860900099732
C          -9.02337829886391    1.32875118986502   -1.03927518437743
C          -8.32104045806821    0.88330241340313    0.06264194606300
C          -7.46649682258683    1.67226271569975    0.89010523605884
C          -7.20171416346111    0.98297880466120    2.03915075719054
C          -7.80127806423814   -0.30941423043828    1.95326109919029
N          -7.65143976925127   -1.29049655076896    2.95190063928374
O          -8.16397303539608   -2.38573061304001    2.77415024395818
O          -7.02649805413113   -0.98209086053783    3.94839534346242
C          -8.47066213294526   -0.42655074141779    0.72910619118623
C          -9.00200113371925   -1.59890325527579    0.17263451078942
C          -9.21455859660700   -1.76648495806545   -1.17365396196492
C          -9.82289243495885   -2.82383884189944   -1.86482974016190
N         -10.38149284524931   -3.99802201609849   -1.43665710300589
C         -10.38815762307501   -4.55243351625931   -0.10163918453276
C          -9.03369416000666   -5.14392821732582    0.27736764540479
C         -10.93063320197404   -4.74172996421500   -2.51061081157598
O         -11.45343981742095   -5.82131471678327   -2.38216170054377
C         -10.70431692628953   -3.90413373947520   -3.67852130813258
C         -10.02210425778692   -2.76427641189624   -3.26111434043158
C          -9.81795889534134   -1.90909418824517   -4.41522224532625
O          -9.32167942578216   -0.81189908634511   -4.52503395407039
N         -10.36038895191320   -2.64735040539111   -5.49455053050105
C         -10.49517571244695   -2.01801536770291   -6.79120077606647
C         -11.94981914296754   -1.68824032569565   -7.11052932003332
C         -10.90761623893670   -3.83037808706161   -5.07136962926871
C         -11.56797747684700   -4.83516989409638   -5.80664227830102
C         -11.47718736249723   -5.10777970832294   -7.13927740443261
C         -12.23585056532573   -6.11218022181608   -7.79179498706195
C         -13.57605263230061   -6.43617645633803   -7.62176926239992
N         -14.54569804314629   -5.78080611656182   -6.82941025803238
O         -14.24658203532673   -4.72675270081767   -6.29319998181279
O         -15.64301418528576   -6.29775608024170   -6.76158451200538
C         -13.94225483028557   -7.45320807549797   -8.56855604621481
C         -12.86234655665925   -7.74610104987233   -9.34009189158976
C         -11.74725507510379   -6.96095878257838   -8.89552169896791
C         -10.42997364026565   -7.08351788705324   -9.28154888537130
C          -9.27793996164178   -6.72867078442214   -8.50399581528264
C          -8.16602653403949   -7.17323223853689   -9.14235261693081
C          -8.55475158778763   -7.79249554937479  -10.38360805845532
N          -7.57622123816904   -8.17877336536148  -11.33093153725287
O          -7.93166773174803   -8.50967821248598  -12.44608075160758
O          -6.41668818058403   -8.12267421352749  -10.96801415173189
C          -9.93642338375337   -7.76002961023312  -10.50019661289648
C         -10.78556433119031   -8.15137323807808  -11.56892020728177
C         -10.60180029849023   -9.21613048783855  -12.39235138172607
C         -11.48217236797186   -9.53165985341767  -13.45087287620201
S         -12.82698223048545   -8.51004144621170  -13.92214888740799
C         -13.30646711825877   -9.60602894891723  -15.32226361603964
O         -14.22832935084949   -9.35487208694600  -16.03535308739885
C         -12.37271732396091  -10.70898827794938  -15.30499071014459
C         -11.39800629654287  -10.64549318006211  -14.26737607847956
C         -10.49055464999043  -11.76035376543384  -14.23702916036928
O          -9.60166657039990  -12.05658762507776  -13.49842183042101
S         -10.98072631938387  -12.84778239326198  -15.67207003019331
C         -12.26311681725604  -11.80605473387573  -16.11194150191660
H          -4.43178601615732    6.49886994650229   -2.27526591817612
H         -11.68653917064832    1.70290391064844   -2.99173057950420
H         -10.93822346564918    0.19000589113037   -0.93566006958753
H          -7.20103317858052    2.69233448012127    0.69305846579156
H          -6.63788634956650    1.32237636988557    2.88778816318212
H          -9.16210008413390   -2.40995275929005    0.86861590621045
H          -8.87482746346695   -0.98512678030144   -1.84236667630862
H         -11.14200631658665   -5.34477200080698   -0.11117316486344
H         -10.69924050162548   -3.78465177212696    0.61003714972951
H          -8.80118325846998   -5.98752980095738   -0.36755078188479
H          -9.06355256960346   -5.48817879944551    1.30643226365659
H          -8.23943492849310   -4.40762561302906    0.18608163919148
H         -10.05113956634888   -2.64891779642784   -7.56422073087150
H          -9.91034363590742   -1.09547092520681   -6.72987943673709
H         -12.57614092837945   -2.57661270325785   -7.08130973797315
H         -12.01299034075050   -1.24465729383652   -8.09984519527493
H         -12.33605069173204   -0.97365923965916   -6.38817461516633
H         -12.14901615160844   -5.49974278845932   -5.18001848629944
H         -10.75796860806084   -4.58713879383301   -7.75517218497251
H         -14.92689500621680   -7.87686996972192   -8.62790999642465
H         -12.81533242283796   -8.51063159018652  -10.08968461828560
H          -9.31041697590670   -6.29101550742420   -7.52568395443883
H          -7.14519104562835   -7.09702512959235   -8.81877351027758
H         -11.67727140732348   -7.55097067675589  -11.70915624808388
H          -9.77068846311973   -9.89457938218288  -12.26268037306198
H         -12.88741410433855  -12.04566458925014  -16.95284695234486
