89
 SCF done       -161.493555677489          0.000908978279
C           2.36752711426750    1.22803015702982   -5.61597775137492
S           2.63025222267317    2.89559512773568   -5.34708364757213
C           2.34328894347810    2.70260610740771   -3.64182902459720
C           2.06099025663842    1.38764873179980   -3.31734203237149
C           2.07889496869548    0.56680494028900   -4.46343965094271
S           1.75960309290392   -1.19211032380682   -4.39901497553381
O           3.02275233982072   -1.87728567179140   -4.39730432247517
O           0.82152640945869   -1.52457479504130   -5.43524243161276
C           0.99654110486373   -1.35813104537188   -2.76049671358770
C           1.90093910683294   -0.61404278680906   -1.79921206734178
C           1.75808997572505    0.89994754565521   -1.94047819027088
C           2.41454048868421    3.81352928517286   -2.75430672490567
S           2.88481647449870    5.42529267711583   -3.26909756627743
C           2.66003599338807    5.88286063776342   -1.58141413325925
N           2.28329898313670    4.87916113106935   -0.84115621020279
N           2.14637274750114    3.74914317295128   -1.47916777022415
C           2.88185762068603    7.20969686160486   -1.12390632821373
C           2.72026430621026    7.55212569393888    0.17726340550393
C           2.95065038124006    8.86566260012208    0.66089272754555
N           2.78761244094867    9.23230009382184    1.97770399117980
C           2.30024737455077    8.39903657490215    3.04993260452686
C           0.78435156749428    8.22793368527249    2.99175417700661
C           3.10273740292854   10.58354719113041    2.19187395263773
O           3.03470345645783   11.12436875175653    3.27911868322371
C           3.49636583706799   11.07093262031010    0.88951818057180
C           3.38840667554865    9.99244235746738   -0.02831857978236
C           3.78576881867712   10.47670904568844   -1.33021392419052
O           3.85028364122293    9.93780609693719   -2.41836805097986
N           4.10959125955003   11.82707874750633   -1.11477409162494
C           4.60136137508569   12.65349506202229   -2.18999085353056
C           6.12239210705792   12.78497920285673   -2.15732828213544
C           3.94948398258701   12.19348189565082    0.20299995359753
C           4.22009744239290   13.49987910155470    0.69402514418747
C           4.04884520477269   13.83090148861213    1.99464058873904
C           4.31764830039936   15.11493080037522    2.58731738604370
C           3.99596985953800   15.31000680820990    3.93239093962407
C           4.25588559919226   16.51218953365765    4.56750840740937
N           3.92602647369024   16.58198985247970    5.96877787179817
O           3.03374796741084   15.86190021001797    6.36341687653328
O           4.55688757709954   17.34102803629530    6.67595014225632
C           4.84676810624576   17.59567146621217    3.88660144933486
C           5.15077024690409   17.38823364738449    2.53200913541289
C           4.90391172293367   16.19246017443121    1.90304189272224
C           5.08516812101575   18.87705028370583    4.50561763429874
C           6.01689553044313   19.75349494616741    4.08660502312317
C           6.25446491497222   21.02150806061860    4.69111204321081
S           5.40699977589729   21.60496416433126    6.09378362256283
C           6.28884843970159   23.07631171709893    6.05957537095585
C           7.19283866790467   23.13610285560077    5.03622019831758
C           7.16980493388948   21.95485182315448    4.26714293336862
S           8.15647081844084   21.73782482070313    2.79859177127927
O           7.30034843754829   21.94629594690778    1.66084131573714
O           8.85992870765061   20.48413950443530    2.86253311086636
C           9.33694986521923   23.11326813990343    2.91530706416527
C           8.54942529790842   24.34775817670995    3.30383364224764
C           8.10683929784700   24.29055541417815    4.76566896039428
H           2.42963667495476    0.81251447604605   -6.60114724763485
H           0.94441589585517   -2.42227750968189   -2.54689738157220
H          -0.00297042321525   -0.93793209953488   -2.82669752014670
H           2.93000229889283   -0.91211818251803   -2.01349054044635
H           1.67323945917842   -0.89489784600711   -0.76895214664175
H           2.41430146855245    1.41218793743223   -1.23402716638758
H           0.73869792019752    1.20304313194162   -1.68039731629842
H           3.19066056533185    7.94126016321894   -1.85719461989506
H           2.41072771720042    6.78788391376045    0.87482022483102
H           2.57665129391848    8.90952770311981    3.97684855524719
H           2.80249093220835    7.42839641005038    3.01674995066533
H           0.29858988604299    9.19807736467227    3.06261839751505
H           0.45237906531340    7.61176858068038    3.82259500001678
H           0.48116007457643    7.75407724887913    2.06087074063417
H           4.12199174533701   13.63558089906896   -2.14688772214829
H           4.29845046159023   12.15565321910836   -3.11554404924989
H           6.45770824930792   13.23009844400196   -1.22303886308153
H           6.45630067061477   13.40747752419142   -2.98285058033320
H           6.58002015528404   11.80370542104473   -2.25494958525303
H           4.57041080461825   14.22965819644799   -0.02076976688628
H           3.67822165114558   13.07465442711234    2.67412841499669
H           3.54706049799280   14.50835365420174    4.50122302354523
H           5.57651106104204   18.20399864773877    1.96930704113295
H           5.17070205569820   16.08823045879190    0.86315347677887
H           4.49704369320010   19.13200900164897    5.37734186240928
H           6.68478710586389   19.52726213124242    3.26736668407748
H           6.09160004407560   23.82630058990329    6.80001694349099
H           9.79764462450205   23.20455334867960    1.93530658795357
H          10.08101930494058   22.82867316253981    3.65415907549852
H           7.67377778325026   24.40928311267060    2.65317420567440
H           9.15386889623846   25.24405201533683    3.14725859176096
H           7.59976460174729   25.21890703855656    5.03653427160451
H           8.99070398549263   24.20410907075423    5.40694458083320
