73
 SCF done       -152.553376831816          0.000452440066
C          -5.58581447149658    0.61715597503776    7.77141318121641
S          -6.11339290967590    1.61629273412460    9.08645199247388
C          -7.15213148344186    2.53623258797054    8.05662974082646
C          -7.08502830363173    2.09353070273694    6.77815101476432
C          -6.18388439288867    0.98750601429908    6.60906491438562
C          -6.17694932447078    0.61422478313057    5.21982960339741
C          -7.00898422664316    1.43846663216773    4.51763612475619
C          -7.65776424594312    2.42063188242290    5.45862995974986
O          -8.46824015586494    3.26962568248868    5.17182029727604
C          -7.30840777604658    1.46545949842949    3.12231575104845
C          -6.73842330021511    0.66842657807444    2.19321457203259
C          -7.05623765457739    0.68744379250423    0.80478769037912
O          -8.06364357176681    1.46212230089639    0.32067398674584
C          -8.14053862793398    1.30035712040459   -1.01282872765794
C          -7.14270397251046    0.39471846860439   -1.40387392380973
C          -6.46242045699204    0.00370525514910   -0.23102248458340
N          -6.82841968360845   -0.07053202520306   -2.69021256424745
O          -7.45709525663072    0.38058914811596   -3.63681712219186
O          -5.94191341858943   -0.89301928049095   -2.78939599016797
C          -9.15174589457997    2.00984028538947   -1.70686314990987
S          -9.33175097569877    2.04310424842067   -3.45337798089522
C         -10.69629489933757    3.09718016741981   -3.34835542526037
C         -11.00961384582856    3.40071725416854   -2.06522791314689
C         -10.13565505799651    2.78752204066249   -1.11625994053629
C         -10.55717323336989    3.14542994619291    0.19503222908036
C         -11.65909148386008    3.96525175125295    0.11866037562602
C         -12.02075353419144    4.18922635147912   -1.32321389859085
O         -12.92429578008811    4.85526104826238   -1.76634230374650
C         -12.32557443805443    4.48533836439014    1.25186157608560
C         -13.42383677521222    5.28946394700491    1.24370149332252
C         -14.03936888569894    5.75032848709722    2.43009039270895
S         -15.26907708226337    7.00487552409865    2.36947400509548
C         -15.42726119914916    7.05124024706996    4.09487794858268
C         -14.60635349375133    6.15584494688564    4.68761086224673
C         -13.82327903814407    5.39277804062080    3.75559652216806
C         -13.04921726971478    4.45629758682010    4.47979402890957
C         -13.25727852209002    4.61804466056771    5.83699364366762
C         -14.25359387523983    5.71506322040113    6.05877622372180
O         -14.66466537398327    6.12981043032600    7.11513625600099
C         -12.61854599243719    3.91363016554039    6.87824607288486
C         -11.79046947832746    2.84699428105189    6.64754482638760
C         -11.04923818522106    2.19929022688308    7.63582913094042
C         -10.18287521726220    1.13765019218790    7.50646213484473
C          -9.54663947699179    0.65423704841016    8.76397694055651
O          -9.65819182372879    1.15414952829726    9.86141346736303
C          -8.76318845628515   -0.52222352891136    8.37504854767024
C          -7.94381448955381   -1.42533330870329    8.97730571909750
S          -7.32210879710923   -2.56255813058385    7.80217434850252
C          -8.17828808996441   -1.79073617624807    6.51614044628807
C          -8.89698880346383   -0.72644027483871    6.96509145373287
C          -9.74359285265777    0.31942822033197    6.39934303170983
C          -9.93760067780350    0.40260208897752    5.03760688811539
C         -10.55981481000023    1.37568717297973    4.23883176757798
N         -10.99075168304941    2.07393293872385    3.43065072518136
C          -9.40394811986074   -0.56862020939725    4.16281566030590
N          -9.00326606800254   -1.32109922899261    3.39275201420276
Cl         -7.50610265226971   -1.51655503969489   10.61209112475722
H          -4.87229864406451   -0.16172449243206    7.95294429403067
H          -7.73425579137154    3.33543121545019    8.47112782193287
H          -5.59055448585502   -0.19165036383533    4.81747679584044
H          -8.04909997119681    2.19573926260949    2.82284507840085
H          -5.98072001549582   -0.04828698018555    2.47077095488882
H          -5.64528311463362   -0.68518461857990   -0.18304832407158
H         -11.18577682096761    3.41888105708601   -4.24701294676207
H         -10.10304254098222    2.80783391800115    1.10891170110007
H         -11.88041264494248    4.20068274696801    2.19271734179832
H         -13.84115728959324    5.62080972733764    0.30333054714122
H         -16.11841762840333    7.73819924568761    4.54281651221170
H         -12.39221057451738    3.72387391875296    4.04807594834928
H         -12.79629540736026    4.26162952288300    7.88788405456861
H         -11.68682965543095    2.49500475356418    5.63805922581344
H         -11.14560168268295    2.56381776422501    8.65456175049558
H          -8.08784416730371   -2.19187904260109    5.52734198212240
