82
 SCF done       -165.452861074839          0.000398920266
C          -0.15927949791842    1.06394896339107    1.92077100064099
S          -0.77209366671012   -0.34218833410168    2.68546859789380
C          -0.37035820272196   -1.33056451922512    1.31968162074426
C           0.22460552197380   -0.56742975263167    0.34080764887592
C           0.34182255597885    0.79990819662461    0.68859923215788
C           0.76512747485463   -1.09154142847537   -0.94958528439409
F           1.33211458064447   -2.30365369340260   -0.82907249880480
F          -0.18145678175812   -1.20834740019054   -1.90234685587803
F           1.70476802532986   -0.28359343222596   -1.45992450086398
C          -0.67133925589520   -2.75133291583900    1.34939757715011
C          -1.14046473471228   -3.42597064781932    0.22439766499530
C          -1.42482683272117   -4.77898658226096    0.29034823544494
N          -2.05076736889601   -5.35963115922765   -0.87562292485035
O          -1.58889212233841   -5.07260571312577   -1.95691271785510
O          -3.02236068974351   -6.06179286000982   -0.69623839638811
C          -1.21551395460226   -5.52661085237660    1.46062034448593
C          -0.79876692879560   -4.81646232071449    2.59438750904323
C          -0.53975781622492   -3.46672196537687    2.54508048022925
C          -1.35125258311671   -6.96031914240831    1.55763187026400
C          -1.13331643504085   -7.84130368717048    0.55898374801184
C          -1.26079017224748   -9.24679097766415    0.75149580420798
N          -1.13858548407859  -10.16629930123783   -0.26086799118440
C          -0.87157999309063   -9.89019931030803   -1.65257280919558
C           0.61505931658587   -9.66001874194363   -1.91304361917034
C          -1.31188746694436  -11.48254325813289    0.19999641405499
O          -1.25275290731363  -12.45994589121737   -0.52001553933503
C          -1.55956784010492  -11.33662887443647    1.61711192204846
C          -1.52538104586603   -9.94909410136317    1.92224760147961
C          -1.75357511399826   -9.80180217349758    3.33990942248478
O          -1.80152811389576   -8.82399397768291    4.06380665542672
N          -1.91210948502506  -11.11667344368724    3.80583203229837
C          -2.22390700009414  -11.38162250962578    5.18871259329322
C          -3.71178986847016  -11.65762858259800    5.39320662290469
C          -1.80379627256461  -12.04199037148061    2.78984277265190
C          -1.90674844445426  -13.44541890749562    2.99261413321490
C          -1.81395703511096  -14.33267412927367    1.97548841086539
C          -1.88510239105625  -15.76525859869336    2.09134088846052
C          -1.80544013050393  -16.53730373600741    0.92909675933612
C          -1.83422411931128  -17.91962246558928    0.97410761075593
N          -1.72733164174390  -18.58511816272771   -0.30430000867016
O          -2.24330676802343  -18.03351103514465   -1.25069799486749
O          -1.12161360121054  -19.63474988864062   -0.36663244885928
C          -1.98112259299245  -18.61912406616420    2.19161115034816
C          -2.07104976917414  -17.82566811321733    3.34677210544270
C          -2.01660266126201  -16.45427124090171    3.30701204493397
C          -2.06343364511518  -20.05872570639682    2.25310903510884
C          -2.48571810609134  -20.77107473452811    3.31636469983075
C          -2.54764608732587  -22.19925415374797    3.35015962554873
S          -3.16156086959632  -22.98774481071634    4.77985667195001
C          -2.92486700682331  -24.53220632639436    4.09949714958464
C          -2.40161007505041  -24.45070297909418    2.83871711290640
C          -2.18247597851005  -23.12765480070135    2.40568138219315
C          -2.06966109004532  -25.64337201077935    2.00379105706896
F          -2.56732430686761  -26.78087786782464    2.51233684006918
F          -2.54334739075673  -25.54025169305483    0.75252894764706
F          -0.74129685175942  -25.82972803728974    1.88841625550883
H          -0.20127517816817    2.00550398951209    2.42980010641077
H           0.78717781334673    1.53502279244070    0.04374606019329
H          -1.33245671704081   -2.90596267433986   -0.70141486151285
H          -0.66125099468442   -5.35932195604871    3.51673416785257
H          -0.21254776743614   -2.94841411863148    3.43402624901585
H          -1.57919793782718   -7.33872290571366    2.54578444061159
H          -0.83527313792241   -7.50941658271695   -0.42514104075651
H          -1.46437104052026   -9.02978999095877   -1.97346944390115
H          -1.20512896185962  -10.77245405618465   -2.20595191702212
H           0.98901071701152   -8.81219344978537   -1.34297449322950
H           0.77509361138635   -9.46641049348078   -2.96987106207805
H           1.18245370943884  -10.54367362281725   -1.63099314639831
H          -1.94050511637485  -10.47981199369364    5.73891123728377
H          -1.61728149562341  -12.21717958462723    5.54986376978639
H          -4.29407122952644  -10.79826260407480    5.07034265234342
H          -3.91283318488113  -11.83781303446090    6.44572891847909
H          -4.03148594784135  -12.52518797563685    4.81984558720061
H          -2.05947381560648  -13.78203920608880    4.00749394277432
H          -1.67129360697810  -13.95331142685839    0.97230399332785
H          -1.70805860974316  -16.05032126831059   -0.03067526020322
H          -2.16403971000885  -18.31252724450304    4.30413497600787
H          -2.07212683463922  -15.90556019005387    4.23403178250285
H          -1.76665283646226  -20.59543228451849    1.36569701361870
H          -2.82225591476616  -20.28316609288441    4.22043363794878
H          -3.17950237432921  -25.41774680190662    4.64699303931821
H          -1.77454271663892  -22.88550299782667    1.44194398919728
