76
 SCF done       -149.428582983501          0.000429048422
C          -0.48926551178166   -0.37338066956654    3.21231421647370
C           0.25412561097053   -1.25816606135599    2.45601006390940
C           1.26817151976021   -2.00069760317330    3.07491794789178
C           1.45477698515185   -1.78701776642226    4.44930846817368
N           0.74714988407384   -0.94370071618929    5.16998942262562
C          -0.20417574259419   -0.24944375355670    4.56657603663114
C           2.11517940437785   -2.94115545873613    2.38754137396190
C           2.05732932807461   -3.25913990353245    1.07544541630700
C           2.95335399180525   -4.17779242389926    0.46814419459634
O           3.92213845899458   -4.76850731907271    1.18265100151207
C           4.64413894798526   -5.56980826683154    0.35284215969606
C           4.13129353003092   -5.50280129688223   -0.92460664629166
C           3.03499766522816   -4.60708820049958   -0.86895298241411
C           2.15783292252574   -4.18593865238977   -1.92813253734671
O           1.23030054559030   -3.41519710061201   -1.83891655958900
C           2.48322966039624   -4.82439682149068   -3.30938442494135
F           3.73497111513802   -4.54037087351887   -3.70820388865333
F           2.38597363726797   -6.16458663534710   -3.26950579001572
F           1.65926265650184   -4.39617164602967   -4.26154090451660
C           5.75885870780444   -6.29022110894166    0.85635221392254
S           6.76171479169031   -7.18616795089191   -0.22350942395974
C           7.84843562132254   -7.66109116685859    1.04767000217452
C           7.41754303110489   -7.14669539999062    2.28454018336479
C           6.22948523592025   -6.36658912172343    2.17745049783918
C           5.67289439766996   -5.79468249915355    3.33221626169135
C           6.26534920788408   -5.97745500923655    4.55977183323114
C           5.66132505983573   -5.38172455716483    5.75132944175993
C           5.04319570031964   -4.20848372561374    5.76875147967468
C           7.45416083094532   -6.75911657171479    4.66863854654111
C           8.10404503317185   -6.94927234141885    6.00353396925806
C           8.00765475627907   -7.32192204290172    3.54842456834854
C           9.00413505047116   -8.41869587169490    0.79268394017976
C           9.35687650878961   -8.91863123570480   -0.42494973307981
C          10.56245909765980   -9.61551815731802   -0.64933019664513
O          11.46920794977850   -9.77110508156310    0.32787477283739
C          12.53951724535907  -10.44164362698388   -0.18049972987789
C          12.32512642795070  -10.73569339491514   -1.50019620334557
C          11.04686301792315  -10.21053361474922   -1.83108174203757
C          10.35334452200454  -10.25203892763974   -3.08424188464677
O           9.25921533943709   -9.79313244246355   -3.32992168975188
C          11.13602640274380  -10.97994271663958   -4.21507570013712
F          11.39602418195224  -12.26257575359319   -3.89825590675489
F          10.46701786657564  -10.98848959033204   -5.36415956485839
F          12.32826496066533  -10.40239499797338   -4.45571907188030
C          13.66594044726563  -10.70459709792258    0.68724216101820
C          14.83247408875411  -11.30622694381774    0.21696594850971
C          15.90123106300982  -11.52383019808377    1.08339491655571
C          15.72653909672566  -11.12702254036689    2.41483612944939
N          14.62759508668348  -10.55896331138634    2.87199628858635
C          13.62786772871697  -10.34749995069703    2.04027786081510
C          17.12189311197517  -12.14001067712901    0.57958914140069
C          18.26611628394462  -12.26827257304479    1.23944168919658
H          -1.27560213136959    0.21285117103233    2.76300533221390
H           0.05565245006522   -1.37305124019865    1.40144110352027
H           2.21987279158572   -2.33305830544221    4.98789423789821
H          -0.75722279389616    0.43302748800790    5.19770876755184
H           2.86558609788576   -3.42264003043004    3.00217289816220
H           1.32952218070795   -2.82571813706112    0.40804197995396
H           4.50456127215915   -6.03256976738931   -1.77636264712974
H           4.75895482690432   -5.23102425251705    3.25580247132617
H           5.74227519740324   -5.95452326805977    6.66496788720435
H           4.97861255648071   -3.58495592949047    4.89197243353652
H           4.60318569382708   -3.81389612816505    6.66842239039441
H           7.46575504618025   -7.54312947128964    6.65791946651053
H           8.27783722623432   -5.98876851698329    6.48602825431062
H           9.05499362180220   -7.46470307603078    5.89752964279995
H           8.90762438336416   -7.91153838783041    3.63577940716249
H           9.65925673552254   -8.59892711576728    1.63425472196230
H           8.71802724414318   -8.79032548652979   -1.28585856633672
H          12.99009633315018  -11.26050957700971   -2.15311911702304
H          14.91436160734535  -11.59519836629086   -0.82040218596747
H          16.50350252905668  -11.27808309366515    3.15060018220459
H          12.75145222608742   -9.87435189478013    2.46072129355443
H          17.05325130270386  -12.50426470727832   -0.43805834637176
H          18.40084015695922  -11.91327043078790    2.24627845125562
H          19.12266098375371  -12.73436010720072    0.78396237390370
