127
 SCF done       -206.356620649804          0.000480555185
C          -5.14222375979977   -0.92356270700277   -0.67424527598875
C          -5.28163597993332   -2.24122300500558   -0.99566282462490
C          -6.61834822264897   -2.54771402780654   -1.45488825566194
C          -7.45931261047196   -1.41016748730343   -1.33999405900911
S          -6.58596384820160   -0.00501002164201   -0.77181342163543
C          -8.79994375240097   -1.38390169666421   -1.67910562272289
C          -9.63314727020114   -0.15267564327629   -1.48778593345089
C         -10.32358419676232   -0.17491571961604   -0.12276685776113
C          -9.33187527057922   -2.57382178891257   -2.17921053517713
C          -8.48038880215532   -3.68393410818144   -2.38214017427157
C          -7.13053331804759   -3.70636633087780   -2.05783904252811
C          -6.30176848477385   -4.88169609380547   -2.49018495481553
C          -5.39891951943435   -4.49902883696435   -3.66259831782570
S          -9.36000413136041   -5.01344547767505   -3.10150778680860
C         -10.82157902040047   -4.09012650781880   -3.09196286563317
C         -10.67078225988194   -2.84762934755914   -2.59456223185676
C          -4.17569039526881   -3.14047531726168   -0.74312555884248
C          -4.31058118867937   -4.31501861262275   -0.09589074075925
C          -3.27869520708782   -5.22585519224866    0.26737613162399
S          -3.67850219336770   -6.44758370565855    1.43151843709079
C          -2.08059262845417   -7.10511833660067    1.45808453402880
C          -1.24449376984112   -6.36949988653754    0.61842388133737
C          -1.93722944443709   -5.34409445885508   -0.11561743840468
C          -1.25380541092333   -4.67302230793890   -1.14648076764992
C           0.07125224332467   -4.94397410790754   -1.39063472445661
C           0.73173277579313   -4.36442735454797   -2.49457704004249
N           1.25386606148944   -3.91178202700785   -3.40989473643078
C           0.79541364924279   -5.83600279471113   -0.53631174917033
C           2.17235531970159   -6.05495355514718   -0.74469108442919
N           3.28623928954216   -6.28126178809363   -0.89838059674725
C           0.14453552171500   -6.52436112217485    0.45524935456735
C          -1.81113725502865   -8.27588018476025    2.23814445847320
C          -0.99801493078704   -9.35327208135122    1.94830306631927
C          -0.96521407758646  -10.32094927657542    3.01234729174177
C          -1.80729837938660   -9.93744534308969    4.08980171233285
S          -2.59382349172948   -8.41060088751282    3.79304465251472
C          -2.00401371750523  -10.67693921430893    5.24061618106789
C          -2.88786818216023  -10.18338643939817    6.34624936676427
C          -2.07300680768830   -9.42008421586852    7.39203458667227
C          -1.30269021697143  -11.88196401108282    5.32795057985352
C          -0.47499019812514  -12.28296688625005    4.25348678314469
C          -0.28524741481159  -11.54607497769143    3.09395320114675
C           0.55737970537743  -12.12544171021298    2.00057529566596
C          -0.31207009344343  -12.82654308695160    0.95606738116704
S           0.27499010135883  -13.82557839712276    4.58526458974811
C          -0.50796338705647  -13.90145331182004    6.12353241868567
C          -1.29480940637164  -12.83824116271086    6.38636035504643
C          -0.29511747481113   -9.41131459441520    0.67511092048264
C          -0.91463417416862   -9.15856410683776   -0.49179269060518
C          -0.32878533959819   -8.78689603513094   -1.74748971378334
C           0.98888305885441   -8.72189992002022   -2.18088171208942
C           1.15591462659206   -7.87820211558882   -3.34526141642874
C          -0.09712601973891   -7.40991733898621   -3.82457956341329
S          -1.41382084113410   -7.91568451803582   -2.79721192569812
C          -0.27955202747892   -6.64671643096757   -4.96098869061021
C          -1.63579539782998   -6.21225810591404   -5.42901772205638
C          -1.93521893256843   -4.77708590435099   -4.99507229372438
C           0.88028540238065   -6.27596468291859   -5.64530836879805
C           2.13523475150211   -6.70934560807481   -5.16427714754660
C           2.31701284458385   -7.51016088403523   -4.04376681087656
C           3.71712935955050   -7.92023629448406   -3.69192640318466
C           4.00953278189028   -9.35643935775715   -4.12991863848165
S           3.42318455953853   -6.10912947526827   -6.17576431565886
C           2.28815681906631   -5.30975476196823   -7.20038520128670
C           1.00592986801664   -5.47619348122991   -6.81877295621267
C           2.03364272429808   -9.49972584279598   -1.58230663055357
C           1.86279457531199  -10.78713080221929   -1.19175936190284
C           2.88171765914841  -11.59904980585638   -0.63910835525926
N           2.63794624022493  -12.88248591266247   -0.35278728468093
C           3.76597146340224  -13.35863862952519    0.18264462168196
C           4.81582596054717  -12.30896618221709    0.23105051196999
C           6.05407722324420  -12.84652674777214    0.83843148932624
O           7.10547999534983  -12.27885071191397    1.02774001345035
C           5.67670228727982  -14.23369786023018    1.15095890119554
C           4.28332781729327  -14.50372776717816    0.73998749970705
N           3.93450115066111  -15.77674034174660    1.03829978359040
C           5.00356711227408  -16.30313384339575    1.59245246021308
C           6.12363771444254  -15.39871415814040    1.69382519173905
C           4.25018976205432  -11.20048534116820   -0.29230658912850
H          -4.25174905786147   -0.44850385538016   -0.30823351649971
H         -10.38315603378486   -0.08433616185044   -2.27712586438056
H          -8.99147431361123    0.72908929276395   -1.55064562727955
H         -10.96684846016783   -1.04760397801276   -0.03493315769591
H         -10.92795173654828    0.71902472328442    0.00889172341404
H          -9.58300096465734   -0.21269019766544    0.67275581060846
H          -6.97310620274819   -5.68358922593074   -2.80406018225997
H          -5.68360334008267   -5.26351421415705   -1.68072118020571
H          -4.69494675791666   -3.72509097869829   -3.36483155087651
H          -5.99288883185288   -4.12323179842052   -4.49270035882921
H          -4.83987341941067   -5.36841973719102   -3.99880593709723
H         -11.71550119316202   -4.54715823534003   -3.46975137006737
H         -11.47637330528856   -2.14056552291174   -2.51539774014147
H          -3.19585466534820   -2.74560094383179   -0.96927159672747
H          -5.29465806786195   -4.58607737736604    0.26788516212655
H          -1.77500160714079   -3.97578957929577   -1.78214230959745
H           0.69355649130828   -7.18916693544055    1.10263264535482
H          -3.39454595895495  -11.02576381197202    6.81948149185382
H          -3.64888971346577   -9.51929142223167    5.92884795992991
H          -1.30411333129147  -10.06100696181879    7.81752392310157
H          -2.71957021969996   -9.07088286589226    8.19321867126876
H          -1.58912801952861   -8.55870902172289    6.93722280280566
H           1.24229753831722  -12.86009184776677    2.42949579169706
H           1.16171606653923  -11.35905970013196    1.52144373305483
H          -0.89911597164923  -13.61224758329456    1.42553276715618
H           0.33157418724411  -13.27092445720934    0.20186460160579
H          -0.99161089223423  -12.11942335162369    0.48414193926314
H          -0.32714444028604  -14.75540105208088    6.74725048770443
H          -1.85191960001424  -12.72510592587329    7.29850162939729
H           0.77374430240468   -9.56207860962731    0.70574981080141
H          -1.99429270152436   -9.05791096329227   -0.47662709244562
H          -2.39527498230527   -6.88246165868415   -5.01837542258912
H          -1.67793185434060   -6.27999669377659   -6.51764313554376
H          -2.04274656910829   -4.73256514545854   -3.91465880995125
H          -2.85829535509178   -4.42702289203471   -5.45041738476624
H          -1.12369096990269   -4.11397613963770   -5.28438978440899
H           3.89770975661318   -7.78165585991482   -2.62654706377107
H           4.40792400277608   -7.25285598520497   -4.21153534211848
H           3.30488613046278  -10.05841541785261   -3.68962316524267
H           5.01544737041026   -9.64149589587849   -3.83249425046012
H           3.93542698407118   -9.43421601948420   -5.21226828800651
H           2.65899342354125   -4.75342962493761   -8.03927568958507
H           0.17179484155711   -5.04390944817882   -7.34046896128110
H           3.00650482621671   -9.04538550032139   -1.49539924951431
H           0.90651024838362  -11.27263966488415   -1.32885582113392
H           4.99148157363216  -17.32676817102275    1.92538236736230
H           7.08148547005936  -15.63372907474458    2.11414124086193
H           4.67327334865742  -10.22521638423235   -0.43018399558347
