141
 SCF done       -206.684252306807          0.000886153151
C          -2.57493668330448   -7.27374906159638    1.58762880409315
C          -1.92355209334866   -6.05047232396679    1.49818954128399
C          -0.56025574430447   -6.00750452032539    1.69317364514889
C           0.15322137213610   -7.18152553634963    1.97862779524501
C          -0.49989900216469   -8.40024799738830    2.06716791203396
C          -1.87037092570557   -8.43420069379498    1.86839235360700
C           1.55640447845257   -6.84160426544258    2.12976953151937
C           1.70530100186184   -5.45964493033236    1.93175521143565
C           0.36720223361182   -4.81393671232972    1.64691350656391
C           0.00633455033301   -3.79332321095523    2.73087237198574
C           0.35366227465975   -4.15489342921282    0.26435339865282
C           2.94162863576122   -4.86705678325654    2.00529980065456
C           4.07089250680357   -5.65007119599003    2.28264021829187
C           3.90151900420502   -7.02294842313149    2.50031894469579
C           2.66155713470663   -7.62592972721558    2.42091080641159
C           5.40788003368677   -5.09494524539058    2.34511331085283
C           5.78169337488624   -3.89492844273223    1.87422681499491
C           7.12180408188632   -3.34663769664360    1.88640962759543
C           8.15543314525968   -3.87993383876617    2.66963868095844
C           9.40980705740532   -3.32466333255634    2.60712159593230
C           9.67031546792664   -2.23103571880457    1.76429041320688
C           8.65320694925419   -1.68073777726671    0.99845824066294
C           7.39350870817306   -2.23824527304609    1.07327675298855
C          11.06823120914802   -1.87914283612767    1.88278261384212
C          11.67318366718242   -2.74734177789874    2.80745266766624
C          10.66144480988127   -3.72969052276186    3.35546423775568
C          11.05978712007182   -5.17304327649403    3.03428873049526
C          10.48038517607900   -3.54655514161980    4.86584071335120
C          13.00905911669974   -2.63183114259876    3.09939708560913
C          13.78380622922967   -1.65231614158929    2.45589780298601
C          13.16141514875095   -0.78969638683089    1.54308521743947
C          11.81667643392971   -0.89308759318552    1.25539609168936
C          15.19010224557669   -1.56922862217311    2.76874678628696
C          16.11329345247929   -0.89199367869462    2.05435200799490
C          17.50502255164411   -0.79048673820366    2.33854996431143
S          18.57446869318876   -0.44571449688899    1.01822262685903
C          19.99588500044527   -0.53716512814304    1.99490118398576
C          19.65322160958858   -0.77162035039398    3.32549887949530
C          18.23287450594060   -0.91563558310597    3.52594584717629
C          17.73366501729262   -1.07284461973511    4.83188326148241
C          18.59790916982829   -1.12737131063666    5.89815621659617
C          18.09279623186198   -1.29452113066159    7.20581305117759
N          17.66041529755905   -1.44017051296435    8.25775177128957
C          20.00840436289099   -0.98242101090047    5.69874469321504
C          20.87791562929878   -1.00847348813444    6.81121076363573
N          21.60487391806270   -1.03918858692955    7.69732435424184
C          20.51676345554662   -0.78795646834393    4.43913754476244
C          21.29709479607982   -0.37650241013148    1.38913957503986
C          22.40862354117530   -1.09563506321619    1.85337813402243
C          23.63133953908049   -0.89915446784164    1.25959064371935
C          23.77370656483868   -0.00463140105505    0.18582524867840
C          22.67295152663617    0.68516107058515   -0.30181485675707
C          21.44785066134446    0.49248502830580    0.30127756916458
C          25.15983204024557    0.00160813269725   -0.22869984263102
C          25.87767423691648   -0.88614581480188    0.59002819907640
C          24.95805430767355   -1.54258451133208    1.59754526086660
C          24.90493645255932   -3.05937065794871    1.38935312971267
C          25.38049280003026   -1.21234406961686    3.03253402841880
C          27.22897334285581   -1.06219152682267    0.42090231751664
C          27.90193229452706   -0.34802140738638   -0.58149367996433
C          27.16496262013475    0.52142595084423   -1.39804398877108
C          25.80806003271608    0.70578322618073   -1.23233904517308
C          29.32628859089254   -0.45556131806462   -0.81357653445729
C          30.21613125096514   -1.13176400689776   -0.06865125840133
C          31.64514994394671   -1.20105341751101   -0.29258568994093
C          32.44135379276637   -1.83861247334809    0.67180035907681
C          33.80308066770769   -1.90091722405734    0.50697616242772
C          34.41028342190364   -1.33582226489519   -0.62594157058860
C          33.63581170203292   -0.71526767883915   -1.59485306332555
C          32.26816286740250   -0.65356124900776   -1.42107320191040
C          35.84169917197175   -1.53780873485802   -0.53263298855805
C          36.11852767195411   -2.22930849187202    0.65702127359906
C          34.84210233794868   -2.52186805504045    1.41477377425056
C          34.61958558832794   -4.03067992789352    1.55762130958714
C          34.84874615429462   -1.84787060309318    2.79008614864153
C          37.41234100392989   -2.54770668022663    0.99250959434954
C          38.46545959088167   -2.17796223439508    0.14556778312610
C          38.17202649173898   -1.49102664834836   -1.03621597158479
C          36.87427410160227   -1.16918460611597   -1.38187205494560
C          39.82395435850781   -2.52929945899258    0.53549372505677
C          40.94674494313682   -2.21149909617305   -0.09935827720998
H          -3.64350005721512   -7.32170523364492    1.43607041185619
H          -2.48319709983845   -5.15262393899315    1.27848105581571
H           0.04702671450552   -9.30563851729500    2.28522564327014
H          -2.39748872053767   -9.37516123634522    1.93219915284583
H           0.01589892883561   -4.26661976194018    3.71052909675021
H          -0.98612008711121   -3.38649264846336    2.55131743721266
H           0.72300747576025   -2.97529912302829    2.73379611371117
H           0.61369283496893   -4.88277395612708   -0.50144054776606
H           1.07260679211523   -3.33971575741210    0.22723094140802
H          -0.63441533916093   -3.75728067856220    0.04463655473639
H           3.04385929523998   -3.80179049947653    1.86456672513848
H           4.77122714103378   -7.62565282537502    2.72278167963568
H           2.55772965964247   -8.68863241048232    2.58341590225897
H           6.15215091823385   -5.75381181470674    2.77330792307619
H           5.04637900587447   -3.26765854315923    1.38737074343022
H           7.95937043900636   -4.71445115980643    3.32550850987809
H           8.84186967522133   -0.83322209724917    0.35621265695490
H           6.59250049433592   -1.82130665823558    0.47885003784551
H          11.18523160959330   -5.29899933935980    1.96082001453655
H          10.29128334936752   -5.86159835516602    3.37727646647285
H          11.99634296481315   -5.42544531183709    3.52595225706125
H          10.20003585424001   -2.51930118463113    5.08934215056670
H          11.40613957091171   -3.77551926767155    5.38845905474897
H           9.69949301704851   -4.20710411173306    5.23503968845861
H          13.47996800293565   -3.29549849906636    3.81121595580474
H          13.74066542200582   -0.01511248958130    1.06437802279708
H          11.35469227820992   -0.21619839163327    0.55214766958865
H          15.50525233453701   -2.15445532469889    3.62163194735715
H          15.81685517081664   -0.41896733868459    1.12718501153553
H          16.67101925557184   -1.11635495312421    5.00893718156057
H          21.57340943922113   -0.61214046935074    4.31031133039482
H          22.28978137780549   -1.82312694787702    2.64191558471924
H          22.77101052243657    1.36477988471733   -1.13471203217828
H          20.58201008617457    1.03217240908561   -0.05576749811036
H          24.59910555654931   -3.28929265785940    0.37075664479887
H          24.19386672032543   -3.51146647113214    2.07694530114971
H          25.88427446845072   -3.49786288896602    1.56475747776367
H          25.40853763529527   -0.13446390123314    3.17881846721702
H          26.36973859653241   -1.61473794034513    3.23614817349300
H          24.67965296123991   -1.64253392597656    3.74442540822746
H          27.77067250750772   -1.74894614261806    1.05292396747135
H          27.68210474946739    1.06716082250032   -2.17482113750975
H          25.26377337918353    1.38599091366558   -1.87056421958474
H          29.67587992928726    0.10162911137391   -1.67257368097283
H          29.87546339163970   -1.66883910026749    0.80718169469502
H          31.97157515274839   -2.27027539186396    1.54494211331147
H          34.09441995921753   -0.28481138465188   -2.47289917408596
H          31.66941225945123   -0.17398608943358   -2.17980893134145
H          34.61566022275170   -4.50435345554006    0.57805906148229
H          33.66663845414558   -4.22819287772859    2.04303018875429
H          35.41283050285487   -4.47448045313946    2.15465636315600
H          35.00668121892765   -0.77670286077601    2.68285056522016
H          35.64562456456782   -2.25626707861761    3.40719136389640
H          33.89956530905260   -2.01010327115480    3.29550882535988
H          37.63008286322123   -3.08066916486186    1.90786894440887
H          38.97547066097287   -1.20652955084962   -1.69777201567051
H          36.66894616438901   -0.63828758447318   -2.29985743513314
H          39.89129953573776   -3.10489622649732    1.45143805883114
H          40.96254079671962   -1.63154757605002   -1.00598807943330
H          41.90755809007347   -2.51569352991302    0.27920360691392
