67
 SCF done       -119.168573079084          0.000946919049
C           0.62685278144366    0.79051075184207   -2.86029050244255
C           1.31969425886621   -0.39893233685656   -2.76514130536713
F           1.63151187354644   -1.06038535476439   -3.89693501725581
C           1.70515040051376   -0.93457770071471   -1.54834545885400
C           1.37949688129440   -0.24721820482776   -0.38971078535925
C           0.68606273150069    0.94517532273155   -0.45216972433640
C           0.30455706423695    1.47395528836623   -1.68854949955671
C          -0.41724022774241    2.72311462767396   -1.73121969355011
S          -0.95108092274152    3.48428219105235   -3.22148585469944
C          -1.60682897501599    4.74709868960353   -2.18649632887865
N          -1.39193571020990    4.51463204187492   -0.92219137926086
N          -0.74244268928394    3.40959661955592   -0.67707432822333
C          -2.28621106913616    5.87722896571745   -2.71747478246661
C          -2.78271085902584    6.85172551654745   -1.91814202943021
C          -3.45954774637454    7.99063762438097   -2.42637370934255
N          -3.98700932982784    8.98232336113164   -1.63042657885581
C          -4.00299306187693    9.01111889403952   -0.18807215924176
C          -5.07277591021844    8.08712561855284    0.38845485706432
C          -4.59225011133274    9.99936010200244   -2.38624302018297
O          -5.12558878616308   10.97486301486480   -1.89244440258839
C          -4.40265482583666    9.58756204071456   -3.75829046202399
C          -3.70738882583831    8.34841087176507   -3.74770715358359
C          -3.50625267574086    7.94089379078820   -5.11853012509111
O          -2.96997553187514    6.96786594594852   -5.61312470497625
N          -4.08915322271749    8.97100416519808   -5.87651043655871
C          -4.12507813822572    8.90368034770106   -7.31698656613442
C          -5.48349488120821    8.43398631455524   -7.83271665900588
C          -4.63070422509323    9.95545197512917   -5.08035024291530
C          -5.27272935695535   11.11532496921068   -5.59443705957724
C          -5.81158048062513   12.06125700685646   -4.79247692211893
C          -6.47478239743150   13.25266460612459   -5.24524578983974
C          -7.19094406787761   14.05793417605535   -4.34246946968249
N          -7.82736755045017   15.14590955374653   -4.70516164881219
C          -7.78946527226833   15.49008675195205   -5.99054330551154
N          -7.11386431602306   14.81916432815386   -6.92889138338252
C          -6.47006575713639   13.73549714620919   -6.56363727677293
C          -8.50647611646339   16.68803584267961   -6.42340342024516
C          -9.47708360730112   17.31739372875778   -5.64056366252432
F          -9.82658523859646   16.82109290513487   -4.44486043712626
C         -10.13351437509070   18.45489340201058   -6.07646551085140
C          -9.82554491446071   18.99020559447365   -7.31413801796493
C          -8.87099319003997   18.37951473484824   -8.11454490303868
C          -8.22384585878523   17.24340391073586   -7.67388506158291
H           0.34534272709567    1.17444393549434   -3.82882156716501
H           2.24648178850611   -1.86671496005817   -1.52133984540414
H           1.67177769420833   -0.64955219195355    0.56794964291523
H           0.42710921357289    1.48897178999427    0.44171578325194
H          -2.39149788926615    5.93174555079371   -3.79191299134642
H          -2.65240863282811    6.75679617208137   -0.85017529800092
H          -4.22329363780099   10.04597415139992    0.08930711654861
H          -3.01360294861791    8.74523580128346    0.19404832125828
H          -6.05422061768593    8.38413210882725    0.02665466358566
H          -5.06780539414111    8.15222782584860    1.47288776869891
H          -4.89318459435739    7.05423510409236    0.09891119517615
H          -3.35590459670657    8.18068532386484   -7.60364154992110
H          -3.86331979983629    9.87905645266887   -7.73711819510485
H          -5.70438022265307    7.44338510636739   -7.44296434827123
H          -5.46845379143773    8.38471190780431   -8.91811814773185
H          -6.27613287017522    9.11170502986476   -7.52258513427913
H          -5.32255274460391   11.21656464642837   -6.66876194967716
H          -5.76941523612249   11.92803181012647   -3.71906806764848
H          -7.24567430019830   13.79893455439386   -3.29220720116231
H          -5.91495468691372   13.24076028339917   -7.35144653075225
H         -10.87836579027152   18.90536738200626   -5.43840903207668
H         -10.33327795846012   19.88011287243158   -7.65372817250082
H          -8.63271313644502   18.79344387597721   -9.08196209035724
H          -7.47949834127006   16.75569632534635   -8.28256244788392
