68
 SCF done       -123.121077093280          0.000640104171
C          -3.48385584539084    1.52819971068004    2.52962124220527
C          -3.81205743657293    1.21727775208620    3.83308320982419
F          -3.92934451026203   -0.07941958272054    4.18019451488889
C          -4.02705817889026    2.19239148054058    4.79200358970266
C          -3.89816591970395    3.52065262029282    4.42038790128050
C          -3.57337660279585    3.86171346793203    3.12123110546300
C          -3.36906983681868    2.86838464018869    2.15948310807494
C          -3.03178793911480    3.22522367639416    0.79552482016056
S          -2.22937578413790    2.10639894916768   -0.25237717311656
C          -2.19840383788154    3.25706159940789   -1.55164495701845
C          -1.42189854127725    2.93950021376823   -2.72217488597792
O          -1.21387747677932    3.67941278508471   -3.65630482415376
C          -2.82104620974135    4.44643707793245   -1.18096512813707
C          -3.26308237360215    4.41652145665567    0.15679286749489
C          -2.96104256640872    5.65858667384652   -1.95685665924621
N          -3.41570237790136    5.78731393292913   -3.23784277127903
C          -4.01693333209448    4.77335494780656   -4.06943378262255
C          -5.26241335738579    4.17039060301582   -3.42753591428506
C          -3.39919108782160    7.13752420193698   -3.65480530413117
O          -3.78822568000601    7.50088228718788   -4.74777682287686
C          -2.88092269508267    7.86235101915692   -2.52090680298507
C          -2.65885487928193    6.92021981061145   -1.47734342676039
C          -2.15471783553199    7.63104017637426   -0.32560917060668
O          -1.87105013908811    7.27077781529928    0.79905189612469
N          -2.08904376263232    8.97037669738704   -0.75506178596071
C          -1.57071177737899   10.00251824233045    0.10883273243489
C          -0.11646832952156   10.33827920159199   -0.21349493957396
C          -2.51068643308310    9.12016263664767   -2.05912887844022
C          -2.54301273520085   10.36672874874774   -2.73773574770819
C          -2.96540282674989   10.47770468890658   -4.02181229546093
C          -3.01432723111028   11.69388725815251   -4.75608243138715
S          -3.54158253981793   11.66545783583460   -6.40660441640561
C          -3.32739001321518   13.37927409490346   -6.55978376268726
C          -3.53216465993981   13.98425046228415   -7.85454430322634
O          -3.38027806222173   15.14954169630961   -8.13647026034139
C          -2.87058052579321   13.94023555975136   -5.36832092544473
C          -2.69203136497423   12.98141643771992   -4.36521927489961
C          -2.59681257522608   15.36595946623584   -5.16854091178314
C          -1.39797409225477   15.78314188230221   -4.59507661456774
F          -0.47614145012842   14.85904433037679   -4.23790163599042
C          -1.10268615947039   17.11632429501440   -4.38916739823094
C          -2.03490322462987   18.07265696383519   -4.75093079466324
C          -3.24317577500703   17.68546251054553   -5.30728992556708
C          -3.52074132432629   16.34798053779184   -5.51540827129628
H          -3.32769680256279    0.73770645062173    1.81094287967417
H          -4.28235467241349    1.90748429628231    5.79995106096704
H          -4.04969640219726    4.29665060178220    5.15523234272494
H          -3.44942077871963    4.89827793841013    2.85152781724499
H          -0.98665837365832    1.92239056273416   -2.68650087900810
H          -3.75300341534628    5.25414442283892    0.61715575827697
H          -3.28227995622483    4.00057022416612   -4.30133888946028
H          -4.28483782999225    5.28543604375463   -4.99827241542460
H          -5.01691511851350    3.64811667791485   -2.50531153957180
H          -5.71783396954824    3.46214904931849   -4.11387584493708
H          -5.98697112845064    4.95026328773447   -3.20266061455903
H          -1.63705062350320    9.60438155897017    1.12560313348112
H          -2.20238843941123   10.89268364534525    0.03812655675314
H           0.50140186103614    9.45119125961823   -0.09860187149669
H           0.24483710959005   11.10392323388733    0.46749172896082
H          -0.01459334282996   10.69973009574676   -1.23429887417900
H          -2.21423181266114   11.24182671966121   -2.19748647852929
H          -3.28708754568666    9.58926499383878   -4.54924786286928
H          -3.84464421193558   13.24569910566459   -8.61968912548861
H          -2.34245533195888   13.22840763190251   -3.37915421340512
H          -0.15292630372316   17.38640426317243   -3.95481861521809
H          -1.81542910716737   19.11805506774271   -4.59788445648524
H          -3.97194497769419   18.43056666508467   -5.58609627355082
H          -4.46245952015726   16.05119534158196   -5.94851811471384
