83
 SCF done       -192.544692297545          0.000334422994
C           0.08306239507981    5.01140530614661    2.99235819719636
C          -0.45269661169603    4.73132679049589    4.19045405311899
C          -1.45132931212555    3.66461695117868    4.01076738879522
C          -2.16205673575534    3.07357714590784    5.06349621604482
N          -2.73018298531557    2.59603789838141    5.93896399220513
C          -1.52915291278484    3.35640921166854    2.69081733024163
C          -0.57769394878297    4.19156743800870    1.98071610980974
C          -0.30609666757423    4.20354367331509    0.64391795770066
C          -1.01114678506380    3.48910022178873   -0.43472826151065
C          -0.21524417401015    3.51829322961950   -1.53709913899268
C           0.97336684943877    4.29638584696952   -1.23129704062937
C           0.89501175645758    4.74435913470333    0.05613124657977
C           2.01034015724661    4.53905614631515   -2.14340031823642
N           2.85356932723743    4.73632850841414   -2.89623938658899
C          -2.35503315304640    2.96799314561144   -0.39252363361643
C          -3.40604048733837    3.64080647195730    0.25867582058653
C          -4.74668563309043    3.12707035376320    0.26492555410260
N          -5.73949985313998    3.86327003976843    0.82387473863065
C          -5.44433586957298    4.97327006259815    1.40360484878115
C          -4.10251520620414    5.45701038546169    1.44729129394225
N          -3.14112634119913    4.82112465030932    0.87353260527421
F          -3.81020099091301    6.60206182039215    2.05841540299830
F          -6.43662967081085    5.68492660217719    1.93089729159826
C          -5.07411151786080    1.90064891919244   -0.33420912512520
C          -4.03995140914056    1.23817321385811   -1.01272339792374
C          -2.70076525106910    1.78244335392780   -1.06372993925613
N          -1.86995449576643    0.98420891069322   -1.74444107070758
S          -2.68207595205161   -0.30019253022536   -2.24592762610360
N          -4.11410500347061    0.05904706286731   -1.63900787620480
C          -6.41090734528288    1.34562203383350   -0.24473878044555
C          -7.12117244972625    1.34300704844040    0.96639512965988
C          -8.46330877005080    0.84123024734589    1.05405964192132
N          -9.10439981830450    0.84626462840358    2.24965011724619
C          -8.50155534228575    1.33894781807802    3.27419987826063
C          -7.15735094026283    1.81661975193544    3.19361842819867
N          -6.50051768873371    1.78961680990933    2.08667302690982
F          -6.53454384494658    2.26763328892943    4.27656422949989
F          -9.15495725460684    1.35249919016950    4.43229777625518
C          -9.12347164754290    0.30544174678330   -0.06074937420756
C          -8.40960844794683    0.27745245648314   -1.26654605511217
C          -7.06269749675726    0.79873321214419   -1.35994070694719
N          -6.59964731438835    0.74224729709976   -2.61373333950434
S          -7.71922422022965    0.09093386166823   -3.54850812357222
N          -8.86297716948661   -0.13347412682159   -2.45670114246608
C         -10.49119009255662   -0.17529915931233    0.02794835317494
C         -10.86459035043753   -1.42465124555882   -0.48565822921851
C         -12.21649286359008   -1.90565452224274   -0.40077252724562
N         -12.53639788066370   -3.08941683200609   -0.98058876703851
C         -11.60870112666287   -3.78004890513034   -1.54724232406552
C         -10.24927195061167   -3.34696185487328   -1.54060009013973
N          -9.90766481059556   -2.21642999325529   -1.03054296693398
F          -9.29415439773554   -4.11299817486470   -2.06035135763083
F         -11.95678689174730   -4.92660048741960   -2.12764992489742
C         -13.23004010166444   -1.16835260504775    0.24156607551377
C         -12.85887377735519    0.09654582994275    0.72991221134565
C         -11.50260977462729    0.58671224951487    0.62913041785330
N         -11.38644461929289    1.81951517113325    1.13602962945605
S         -12.80161555199922    2.28116498011111    1.71024362974781
N         -13.65812938196855    0.98249445859099    1.33660869864695
C         -14.59548820660111   -1.62591739184426    0.31723194132873
C         -15.69518327496135   -0.85341039659860    0.10662541820282
C         -16.86754820750196   -1.71131990001068    0.07573052142446
C         -18.17582864474893   -1.24839312285899   -0.12525628393555
N         -19.24369997628017   -0.86390750845750   -0.29383661657158
C         -16.47780275166433   -3.00729312072427    0.25781045596115
C         -15.05518889096022   -3.01536672375085    0.49320983043990
C         -14.35512065973369   -4.08029281895596    0.97983005388784
C         -14.80653603283989   -5.46828403661257    0.98453602683002
C         -13.82714086368414   -6.23746469405778    1.48565340478859
C         -12.71702927549286   -5.36214751532736    1.89357025539161
C         -13.03707510776817   -4.07843747485276    1.58721499071898
C         -11.53613408994468   -5.81462900852308    2.49525664965642
N         -10.56505783895040   -6.19418583399938    2.97543602816656
H           0.82615053058437    5.75405487506271    2.77788573007813
H          -0.22226290167360    5.17356050711043    5.14152441347394
H          -2.12982035438372    2.58391299744200    2.25134460580069
H          -0.42966510635961    3.08974774430884   -2.49729716095375
H           1.63810420536582    5.31680349561877    0.57658315344550
H         -15.71484553204511    0.20640644019059   -0.06016315636893
H         -17.12188079813382   -3.86321981023570    0.31564465944418
H         -15.74265600200553   -5.80122044115993    0.58146813108970
H         -13.81196401971529   -7.30543505956967    1.59683320497483
H         -12.45785239594231   -3.20453534122719    1.81471697584939
