104
 SCF done       -192.741965345998          0.000747771725
C          -3.41918169794074    3.68434912106268    5.67083501904113
C          -4.65279633820415    3.50727411735328    5.16786562132098
C          -5.24389285477232    2.32905892438063    5.81171668009532
C          -6.54538297548870    1.87806959262429    5.59359133221998
N          -7.61670028551178    1.49860241770079    5.41663699776591
C          -4.32693285182757    1.78433619243929    6.66051647195716
C          -3.13304306348694    2.59783011060967    6.59906195338745
C          -1.94656446588467    2.41641317363622    7.25840675563842
C          -1.53089915134256    1.24123092293999    8.06992984384562
C          -0.45424711067510    1.62634773134561    8.81925589267160
C          -0.11043340196533    2.98172011865770    8.46208372478436
C          -0.97297827349860    3.43742896641028    7.49465921884043
C           0.95939351108724    3.69964282837513    9.01731737725721
N           1.84130526714931    4.28346796110610    9.46157704690266
C          -2.10037517437828   -0.05494534516058    7.92643031490769
C          -2.42892010728257   -1.01738867737582    8.86897709469432
N          -2.26758744637458   -0.97000837207703   10.26316549528932
O          -1.58728588680976   -0.08032762060422   10.74812802959241
O          -2.83033639023012   -1.83210985130516   10.91789273578933
C          -3.12596374231189   -2.09356601334105    8.21731451196182
C          -3.24286243103898   -1.80997227019393    6.89098717859734
C          -2.58632672182438   -0.56980198858194    6.63119034531228
C          -2.26739500167868   -0.02079394498195    5.39774263894747
C          -1.10004950572604    0.73022200423055    5.09170138465585
C          -1.08140861096396    0.97841018762903    3.74856669623140
C          -2.25692756776239    0.43779691508267    3.14824621827998
N          -2.47268153744578    0.59136520011561    1.77313900675464
O          -1.76292666362029    1.39064809867975    1.18358169379022
O          -3.33225789127200   -0.07836960428059    1.21346033808694
C          -3.03627192010337   -0.17918357794317    4.14755036236935
C          -4.36584181689098   -0.61672986422629    4.20735986655014
C          -5.26055856505332   -0.80251291920251    3.17990872083053
C          -6.59090380076556   -1.16708953480634    3.42570484139535
N          -7.50467244422231   -1.43496610822703    2.43859133043732
C          -7.21961079335939   -1.51172493204802    1.02479362936733
C          -6.34659911061646   -2.71572410657951    0.67999185805190
C          -8.78686050193894   -1.68610927551801    2.95076348706347
O          -9.74558345912133   -1.95871314700587    2.26192707771539
C          -8.62946660927332   -1.54047577856406    4.38992335536162
C          -7.27966689996378   -1.25860258818117    4.65215978437667
C          -7.12101243182624   -1.12020947529308    6.08788597626679
O          -6.14764658727455   -0.91462972183133    6.78579048684025
N          -8.41013869814183   -1.32310298916401    6.60108448282078
C          -8.67529297384358   -1.14223598786240    8.00819234094637
C          -9.28175116943279    0.22992715086355    8.29001679390241
C          -9.32690625765762   -1.54981078334534    5.60950944446083
C         -10.70256496364049   -1.75038617441730    5.87167838614276
C         -11.63886136515548   -1.90457953785361    4.90262194597368
C         -13.03095759540719   -2.12758067428836    5.16385391788907
C         -13.63052681549850   -2.18232005815972    6.40239477179586
S         -15.29767078423925   -2.53839400416351    6.33118771530903
C         -15.23990087639003   -2.65191357967028    4.62162903565970
C         -13.99589184338867   -2.39857758160016    4.13115231739092
C         -13.67564006740359   -2.40231975133576    2.69273807001047
O         -12.92119193940603   -1.65343883086401    2.13713526854401
O         -14.35580771851545   -3.39626690774353    2.06225611354094
C         -14.00631372060439   -3.65975838488004    0.76872269713255
C         -14.56644591426606   -4.65805201022367    0.08012728405640
C         -14.15307064101416   -4.99528535174160   -1.25495128303707
C         -14.94747559404358   -5.45224325429226   -2.25587551648827
C         -14.17267218530693   -5.48656817235032   -3.48648183833663
C         -14.67902729050467   -5.91708353210282   -4.72068757337468
N         -15.10494314102415   -6.27229861305446   -5.72544782920984
C         -12.90823765836867   -5.03741576931911   -3.23429259554752
C         -12.79874060359590   -4.79512534253915   -1.81774874030966
C         -11.61392425384856   -4.64226505599700   -1.15455455561196
C         -10.33734727479711   -4.31242859910172   -1.78015244993028
C          -9.39353627540155   -4.24620248716891   -0.82761278243219
C         -10.00998041104875   -4.59825441666637    0.45934578461200
C         -11.33473802054447   -4.82183990610469    0.26034175974363
C          -9.30360683894084   -4.71835860089503    1.66154672073550
N          -8.69710445095765   -4.83244050531518    2.63048176103061
H          -2.71657602265083    4.44693645905162    5.39761650136449
H          -5.16040496819980    4.10441409552259    4.43370984502210
H          -4.49110936542837    0.94281333613733    7.30541434745438
H           0.09421905448225    1.02707063400139    9.51892003408784
H          -0.98490986764661    4.42312303062890    7.07141770860524
H          -3.47621265704486   -2.96663732878796    8.73414325992285
H          -3.64920468760940   -2.46079532263253    6.14242599521698
H          -0.30958102356459    0.94987878089299    5.78284365304297
H          -0.31450679651990    1.48297627972200    3.19120949896148
H          -4.72990937864613   -0.81167134038998    5.20586310415600
H          -4.94454883159498   -0.66483173494051    2.15772211005153
H          -6.73519800390510   -0.58707794342335    0.69757136602788
H          -8.19253464615337   -1.59397756438688    0.53159462725624
H          -5.34995663267896   -2.60911764779141    1.09877551795213
H          -6.24939310088128   -2.79632995287770   -0.39952960955983
H          -6.79031908881965   -3.62756312169721    1.07345176361254
H          -7.70664245238416   -1.22516676810075    8.50879775016429
H          -9.32401488166090   -1.94532526341942    8.36856861430608
H          -8.63359109339372    1.00483077140688    7.88829197905672
H          -9.38375527498304    0.37576110389445    9.36169496228417
H         -10.25891317582077    0.33157216803400    7.82405664960656
H         -10.99795867088666   -1.77790491461160    6.91018230155072
H         -11.34089729690832   -1.86336194756310    3.86331719642929
H         -13.17876852114880   -2.02682385695886    7.36137336904561
H         -16.12911562941792   -2.87399696979923    4.06613805647374
H         -13.23176684482145   -3.01634354249082    0.36872452650402
H         -15.39712680532659   -5.20570466764273    0.50246412373501
H         -15.98909653997396   -5.70624279575134   -2.19560020831921
H         -12.10276555168494   -4.98236373759180   -3.94040625860186
H         -10.21340551095609   -4.09463898576821   -2.82291393483731
H          -8.35545385867909   -4.00144873312127   -0.94564236845959
H         -12.03849122128814   -5.16032267529890    0.99455367501687
