109
 SCF done       -185.371892012404          0.000624507699
C          -5.96774744471574   -0.31687910150205    4.79343618340651
N          -6.76862745212948    0.77777088242437    4.79716879877970
C          -8.09065181137287    0.85811610351558    5.36573356021347
C          -8.04318161883276    0.91656180697191    6.89050211652457
C          -6.11422385881191    1.90085253891367    4.22439874719267
O          -6.62886019501780    2.99413268618286    4.12690459216963
C          -4.82095499523383    1.38415123387127    3.84808569629228
C          -4.76669933409183    0.00839446428627    4.22057103900930
C          -3.46017540892175   -0.49110607999979    3.84837568394448
O          -2.94184926303688   -1.57983046055761    3.95667063633715
N          -2.80357436601320    0.62614153054237    3.28291608459044
C          -1.47297099126906    0.46163547785900    2.75017551804656
C          -1.46726866571127    0.40956797056769    1.22399617818663
C          -3.60888441673479    1.74719818465932    3.27208529043643
C          -3.34250623873261    3.06122705844528    2.81259474667916
C          -2.18284236447441    3.59345903937602    2.34519352034740
C          -2.04240490306658    4.94269084611927    1.94769348058083
S          -3.39538211860596    6.03158467101184    1.93181869884320
C          -2.39821195636242    7.33344647945547    1.34947706892348
C          -1.07145681157925    6.91984549313929    1.18699536915375
C          -0.87211232574589    5.58180776109776    1.52443019379905
C           0.46932521827679    4.90282872283970    1.40270907277146
O           0.66578323961632    4.07344396270749    2.53570810938629
C           1.73845426548089    3.17121050293609    2.42990554336803
C           1.58398921376964    5.94767471424170    1.25189061178959
C           1.20776204809363    6.99188029270178    0.21009077323094
C           0.02023562966362    7.81596586651597    0.69759932935460
C          -2.91833704633024    8.61690367959014    1.10501172495570
C          -4.24981013842409    8.92694657294306    1.15047529230443
C          -4.77286674954573   10.19819315708168    0.84625626601396
C          -5.98902340272059   10.44829505546080    0.21343816253738
N          -7.00479648176911    9.53848854608176   -0.10334062193520
O          -6.88321463589222    8.36899407786198    0.23448460793443
O          -7.97720457147856    9.97281981514994   -0.70314813971091
C          -6.01134981756212   11.81289569005546   -0.23809253984928
C          -4.86901024172379   12.43017188248680    0.15324539505221
C          -4.10276136763352   11.51964048152141    0.95754933636659
C          -3.10890601949817   11.83485170471191    1.85666286637687
C          -2.50144703323759   10.93432147056310    2.81952312635979
C          -1.40440105814591   11.51770885314015    3.34485936493487
C          -1.28361971883938   12.83955642888410    2.77707316836285
N          -0.27143823561172   13.73833349544213    3.14070146823194
O           0.63523041931275   13.31255094746613    3.83943347376516
O          -0.34313899585092   14.89360823786141    2.74618803632854
C          -2.35279741143021   13.09157136099833    1.93707924502390
C          -2.58928995692550   14.35257269887621    1.29027077054308
C          -3.74477213482982   15.03199579032283    1.36080304219231
C          -3.94774189589211   16.32788218241094    0.73753370052330
C          -3.50787266936563   16.58732249117750   -0.56363714074565
C          -2.89437300181214   15.69806725581583   -1.57653624972442
O          -2.62397487619128   14.52939757906446   -1.51422608965346
O          -2.69478716290562   16.42145193729149   -2.70388130496087
C          -3.14570975752195   17.75641117095157   -2.55486440559713
C          -3.70620359734668   17.82314542641234   -1.17154935576209
C          -4.35004250899956   18.84950335949458   -0.50838173267060
C          -4.81082774345110   18.60024460392223    0.77125577791072
C          -4.63318752304592   17.36593964495979    1.40694778255404
C          -5.09435938387036   17.16653006293084    2.76978000455593
C          -6.15808542045645   17.78078983011616    3.31066432407746
C          -6.60445875678208   17.63129881131058    4.68140992434930
C          -7.95702341541590   17.83407356897752    5.03581691665280
N          -8.93322204159675   18.03357871862917    4.09217937757155
C          -8.33005350487137   17.73556294192340    6.37904785165827
C          -7.40747191974904   17.43175067870637    7.35542223749240
C          -6.07845137542687   17.21996701095784    7.01282505680736
C          -5.69217049038824   17.32094237766060    5.69423391000026
H          -6.30820203154491   -1.25461603213393    5.19274923949358
H          -8.67812069238144   -0.00375316126745    5.03513403966836
H          -8.54066722966533    1.77318285724463    4.97133716244791
H          -7.57063072687044    0.02419946268081    7.29558729640909
H          -9.05130592393584    0.98923559514855    7.28860224999378
H          -7.47742688841463    1.78720568768526    7.21329588801538
H          -1.11896758634951   -0.49650623649339    3.14449232924813
H          -0.82016750330315    1.25241340011998    3.12837144844530
H          -2.05841630846504   -0.43684270843928    0.88289488208105
H          -0.44917803194148    0.28693393153121    0.86350434056978
H          -1.88724409263516    1.31709563117706    0.79615842086731
H          -4.20922319630652    3.70879601220945    2.88810939754993
H          -1.27912022947323    3.01280230789682    2.28640899338991
H           0.45167415514917    4.26648835166521    0.49518648029563
H           1.67108936306372    2.51706572583383    3.29781050485289
H           2.70823024255123    3.67766998926739    2.44410641833671
H           1.66394435523126    2.57180677831147    1.51326434331965
H           2.51093591010440    5.45107031411846    0.96162854679069
H           1.73840400020940    6.42564476626830    2.22157325217271
H           0.94874262585150    6.49330276574244   -0.72690135879112
H           2.05671131970319    7.64915245757676    0.01868358935015
H          -0.34744827219061    8.45535742158660   -0.10692251234340
H           0.33657605390912    8.46810148748208    1.51812227371268
H          -2.20723407134520    9.38078926668048    0.82127974796054
H          -4.96589176693241    8.12601744264681    1.28900369741292
H          -6.81741320521616   12.22818091685611   -0.81300084735514
H          -4.58246670150831   13.43555000669494   -0.07249495311584
H          -2.89709583348475    9.97576281053328    3.08774956675951
H          -0.73084812136737   11.12683602012641    4.08295681967377
H          -1.72440893208005   14.81963926911519    0.83820407472865
H          -4.56711123563918   14.64070414786917    1.94694839397633
H          -3.89348914857954   17.96264615990940   -3.32866683542925
H          -2.29805080116949   18.43631055524775   -2.69928594244492
H          -4.48951076965148   19.81375382742781   -0.97194011823320
H          -5.29952587505841   19.39562612723243    1.31326235341904
H          -4.53786239942131   16.45078179808568    3.35646998488290
H          -6.74808372717734   18.43492225150434    2.67918342207700
H          -8.66500429008837   18.33142309123989    3.17076054031976
H          -9.82137844471248   18.37290209798007    4.42062009128959
H          -9.36612074676464   17.89757328865230    6.64197033283406
H          -7.72030145672819   17.36313490677799    8.38658063387889
H          -5.35067264212888   16.98824524128212    7.77504140375384
H          -4.65321057253514   17.18906172221240    5.43306913316539
