85
 SCF done       -149.736300795842          0.000220133088
C          -1.61322906135439    0.71276443737392   -5.88812299865489
N          -0.79274516784356    1.74807619028186   -6.20486611475646
C           0.19199258503070    1.75474983665511   -7.25808789546422
C          -0.45590069340059    1.88140655895082   -8.63408124496953
C          -1.05252882156933    2.88030747800287   -5.39441272015705
O          -0.45231043920167    3.93084011656805   -5.49134044656454
C          -2.11864608192188    2.44034787333477   -4.52777921692535
C          -2.44113312723650    1.09096433028255   -4.86645406445342
C          -3.51201755848157    0.66963161113142   -3.98755583112481
O          -4.13404221388298   -0.36302830201360   -3.89245407264809
N          -3.75775235193141    1.79806542482883   -3.16640328954892
C          -4.78052791983474    1.72298205057760   -2.15185985442887
C          -4.20406770559034    1.35042158758868   -0.78722702257552
C          -2.92528105473906    2.84933956683315   -3.47720426749978
C          -2.81721969539558    4.14839272626268   -2.90374661277567
C          -3.41201591587917    4.67145632908711   -1.80764741639398
C          -3.16738301570796    5.99823191308893   -1.33970338878683
S          -3.88440459549605    6.51868456907148    0.15079819467300
C          -3.11522952134373    8.07043087791068    0.04165819467882
C          -3.35606665472460    9.00218109187621    1.10216603950911
O          -2.82206582204992   10.08181149166157    1.24339885562803
C          -2.35438272217476    8.18550617820377   -1.12877861557738
C          -2.39864900350726    6.99930491249232   -1.88990645727107
C          -1.61140539350495    9.33605780052075   -1.57075654925702
S          -1.16200073640934   10.66321864785189   -0.55055888032885
C          -0.28396561044877   11.40599415138526   -1.83633596218117
C           0.57649146683694   12.54816229679745   -1.57550655670663
O           1.49826520125424   12.88538550150881   -2.27374972451679
C          -0.39588962260699   10.68863545090788   -3.02140091308536
C          -1.12803395699910    9.50879260048372   -2.85482293899696
C           0.14345890977792   11.18082940975087   -4.27391707444866
S           1.23518701873588   10.25871273707549   -5.23699675941769
C           1.41291821947093   11.56646083599328   -6.37220553755609
C           2.48744616388902   11.43401919043241   -7.31970631337466
O           2.90246099967681   12.29011424062346   -8.06757200363056
C           0.59594271695621   12.64562678181334   -6.02958695919762
C          -0.09854942660973   12.40756490890641   -4.82271243532502
C           0.45358393759523   13.93105052680580   -6.67034173156555
N           0.45926674763272   14.22131653914336   -8.00924893080668
C           0.32852662714048   13.31426173792718   -9.12415732813780
C          -0.91074486413040   12.43280805499227   -9.00735090024104
C           0.38066886353604   15.61413081193663   -8.23434556042888
O           0.34328720838498   16.10538023314366   -9.34552507801767
C           0.31885925461398   16.19353109371494   -6.91636966286819
C           0.30729020039312   15.12099949046125   -5.97514060642883
C           0.16816631671304   15.69311377535556   -4.65560960159447
O          -0.01088382283870   15.20713480675522   -3.55712049338940
N           0.17088252896215   17.08623130899948   -4.88441786010987
C           0.12712448155533   18.01222795913456   -3.78020407678281
C           1.51579444974077   18.54492615607638   -3.43448770039380
C           0.25976422752673   17.38996758487468   -6.22108111550390
C           0.27476833628602   18.73416233090669   -6.72604558640060
C           0.35579571132594   19.01811973782688   -8.02714722828659
H          -1.54441819375164   -0.22562676885918   -6.40702527834726
H           0.78666581154337    0.83832209725515   -7.19976597261825
H           0.83923054466830    2.61541389569733   -7.06937748249686
H          -1.12283039465740    1.04342961924776   -8.82442715013392
H           0.31180822065017    1.89781206891433   -9.40235688866725
H          -1.02893976185386    2.80331520305102   -8.69449467250801
H          -5.46572087934968    0.93309397071312   -2.47527438263553
H          -5.32894840772398    2.66705355727954   -2.11650165863480
H          -3.76750328402855    0.35612562559877   -0.83529611486294
H          -4.99393368027195    1.34652007718658   -0.04106739027429
H          -3.42991494895207    2.05000574603092   -0.47948608162431
H          -2.11217510687152    4.76194575276115   -3.44933557583948
H          -4.09370765535929    4.09681280063892   -1.20129083693288
H          -4.10351457621390    8.64286604663734    1.83402054666354
H          -1.86102812468335    6.87308485670638   -2.81045760498890
H           0.35063769679687   13.05680029612429   -0.62014930161195
H          -1.31531678479220    8.82677132155507   -3.66436199236666
H           2.96010270152740   10.43284768112358   -7.28211921720147
H          -0.74479945065640   13.13275831150430   -4.36420721569978
H           1.23170535458977   12.71121051647340   -9.22643995865610
H           0.24667712083967   13.95929656813872  -10.00452055761004
H          -0.84362518890148   11.76819932156244   -8.14894841569168
H          -1.01002194623171   11.82769714985473   -9.90434631686918
H          -1.80318634443581   13.04687155947263   -8.90252500813011
H          -0.26891710698201   17.44719719768128   -2.93115584668051
H          -0.56075773104696   18.83085710065130   -4.01016695797248
H           2.17140794019870   17.71869309478320   -3.17076166773634
H           1.45141092358134   19.22269101699224   -2.58752934683851
H           1.95114972321172   19.07610062956191   -4.27820824780043
H           0.21517820423402   19.53007295372907   -5.99638576156952
H           0.41437831732786   18.24111198811477   -8.77075374180864
H           0.36432741102841   20.03668319192849   -8.37537158673988
