96
 SCF done       -180.297033950360          0.000467011607
C          -1.67742575847958   -2.37294224268617   -1.50489233028260
N          -2.46008789398241   -1.62496593596495   -2.32669032129075
C          -3.39246501994108   -2.13512132029823   -3.30081952435195
C          -2.67602057283713   -2.66183366276431   -4.54126199515216
C          -2.20694179953085   -0.24533670825865   -2.16366934003042
O          -2.78935179269614    0.61958229502707   -2.79013255502587
C          -1.18683254236487   -0.19493236320769   -1.14423688710707
C          -0.88670083859475   -1.54174056967423   -0.76200416428845
C           0.13187630500138   -1.49603862233274    0.26875409523131
O           0.70406970628390   -2.36092795581214    0.89124877066374
N           0.38154866780204   -0.11786963509882    0.43895039774407
C           1.31739307083805    0.35311975268614    1.43112063002687
C           0.61088453813676    0.83802337008148    2.69472810653274
C          -0.39714659483506    0.65873715474647   -0.38754368274338
C          -0.34442310278233    2.07991993196628   -0.40867934025913
C          -1.11827703605516    2.82558871366974   -1.23192582748579
C          -1.07258486402802    4.24644272019346   -1.22035144029217
S          -2.04683125394941    5.22328205170986   -2.30609643573794
C          -1.32067469398335    6.60557981117356   -1.50001197335304
N          -0.48102417300712    6.25567171141806   -0.56683630811507
N          -0.34254618213340    4.97370324510372   -0.41546272922340
C          -1.65219622985947    7.94621354210409   -1.85831783384270
C          -1.20087816086040    9.00710827702548   -1.16673929361807
C          -1.52786689974527   10.37682446310178   -1.48222648559418
C          -1.83923568234531   11.31792407230223   -0.48054876555067
C          -1.87289571724422   10.97677021084751    0.95645133199756
O          -1.67065537333746    9.91992690269123    1.47265974006855
S          -2.30400892684177   12.44424010689896    1.89772497639137
C          -2.46984669718349   13.45916611188379    0.43073074407177
O          -2.76331804356915   14.61706822615527    0.48044906890380
C          -2.18745666950136   12.63754171700110   -0.76434214946469
C          -2.23608798240597   13.15097473333416   -2.07698640820512
C          -1.90659670763252   12.21641511328125   -3.07103017195646
C          -1.57150082823415   10.89338604302895   -2.78721098845480
C          -1.23887445460782   10.24098148190716   -4.08074361460314
O          -0.81682960336854    9.15334317881769   -4.31909994418088
O          -1.48432312225179   11.16046396391373   -5.06965746925146
C          -1.91436722068737   12.35700382392122   -4.55033135285803
O          -2.24198487430256   13.26704631175529   -5.24404796426545
C          -2.62260957657220   14.51661705050944   -2.33468208304730
C          -2.06088472545574   15.33155649035891   -3.24442296457594
C          -2.47220923073677   16.68301283250323   -3.42940336848084
S          -3.86704399328859   17.39553800406105   -2.62896017173711
C          -3.43890028117301   18.87503357012410   -3.49575499952506
N          -2.37985638975582   18.71717946423009   -4.24015729148388
N          -1.85790050261166   17.52969070650319   -4.20457450835414
C          -4.16546152124678   20.08796464523302   -3.38426499167154
C          -5.27255443894532   20.21082101732089   -2.61319744476609
C          -6.00909925128104   21.41644099539600   -2.48154711150032
N          -7.15487848440424   21.52680960257491   -1.72611935201468
C          -7.82820889398683   20.46435992700992   -1.01981072098947
C          -8.61884780433411   19.56294128173154   -1.96516165985753
C          -7.68009856426078   22.83116975955019   -1.74960310681269
O          -8.68514271478354   23.15676553899100   -1.14991816877066
C          -6.76195455072160   23.56964663005067   -2.58742662131505
C          -5.74981532184169   22.67025373933285   -3.02173535446845
C          -4.82803776616507   23.40834744667850   -3.85381252078848
O          -3.82403074446096   23.08181933196980   -4.45249668875781
N          -5.35077864464693   24.71772046682231   -3.87117653313163
C          -4.65911453829268   25.77964866425661   -4.56074548007774
C          -3.84044666336204   26.63822455784375   -3.59950657284603
C          -6.49418180769359   24.82420982712792   -3.11999885411035
C          -7.23491858236205   26.04445711632077   -2.97593045025106
C          -8.33480454773555   26.13979369840459   -2.22527179946656
H          -1.74572643958552   -3.44515338702120   -1.50107775979181
H          -4.04425429069448   -1.30058449205996   -3.57279477702812
H          -3.99310418663761   -2.92596937139106   -2.84200020922683
H          -2.09698495004484   -1.86650022434920   -5.00403788480432
H          -3.40358867919684   -3.02676707403229   -5.26061066589455
H          -2.00335344736869   -3.47587478229948   -4.28017309123612
H           1.93720498698886    1.14581276568339    1.00350350977720
H           1.95414684808946   -0.50265485587631    1.67299323122682
H          -0.05779658295020    1.66724464506874    2.47529156939169
H           1.34679836999706    1.16627110485497    3.42329295182593
H           0.02950548018668    0.02803602709961    3.12843270905530
H           0.33652350151916    2.58692996568837    0.25876422876103
H          -1.80791061431376    2.35895126586487   -1.92139965233539
H          -2.32027171150879    8.05855018902047   -2.69893890319148
H          -0.61293144535144    8.82975771152939   -0.27717345214789
H          -3.38506900924634   14.91532192716324   -1.67739323176150
H          -1.23386280032430   15.02463896511230   -3.86632293567914
H          -3.78165281315933   20.92115605419475   -3.95787435210104
H          -5.62292493014002   19.35021549625748   -2.05808723282829
H          -8.51377579520366   20.95518370178431   -0.32317090481932
H          -7.09993606253496   19.88410907584953   -0.44601836594879
H          -9.36628206871302   20.14745856753256   -2.49589401150108
H          -9.12390664919342   18.78718241118711   -1.39639211460437
H          -7.96521096836190   19.09215056840583   -2.69621571619835
H          -5.37813311633933   26.38961513631552   -5.11436418871637
H          -3.99017930141807   25.28968824081914   -5.27397231552295
H          -4.47826035619414   27.10380907340189   -2.85118306846445
H          -3.32143092448899   27.41658152942540   -4.15182837540478
H          -3.10275190909918   26.02269437100082   -3.09060625706675
H          -6.86498055529463   26.90643328026300   -3.51373076212571
H          -8.72175587916927   25.29482541064122   -1.68035340821385
H          -8.87138913505063   27.06898431633283   -2.14032630963078
