82
 SCF done       -149.151644890659          0.000509962198
C           0.11794779950057   -0.88075051178690    5.46863379322338
N          -1.01053231456771   -1.07953728096569    4.73373558643004
C          -1.79107958213902   -2.29170313680977    4.70204138134214
C          -2.41255261286321   -2.60875357408991    6.05849046730725
C          -1.34186156647644    0.06858995908940    3.98423848328532
O          -2.30163245647137    0.11830397103345    3.23470769819787
C          -0.32157428520760    1.02408776689676    4.32529365386360
C           0.57082458580961    0.38747641213637    5.25244844424065
C           1.61521177410322    1.33101838834571    5.58625345456200
O           2.57663697589082    1.26513714219384    6.31896570721886
N           1.28643056167146    2.47983634170117    4.83698179276787
C           2.13805649092499    3.64320018907950    4.87009292875632
C           3.07898982777681    3.69271207144220    3.66804965929590
C           0.14466383105074    2.30591525234453    4.08354615912906
C          -0.37620983862217    3.33469028287131    3.24242271767624
C          -1.52765020336941    3.24264008207185    2.54553420740497
C          -1.98431006149320    4.30479342565554    1.67686975787613
C          -1.12131259016695    5.15283833036573    1.03065965031125
S          -1.90872325565455    6.31728135647947    0.05222017799051
C          -3.43330830330961    5.70669994800991    0.50817862427527
C          -3.34726705899552    4.63756436269930    1.35731617570193
C          -4.59435019021765    4.03374255719680    1.85819073203699
O          -5.69046366026528    4.49620238283706    1.64676712623549
O          -4.37857588119370    2.91572858168411    2.56995942523060
C          -5.44352047598994    2.25740910200736    3.12132169665320
C          -5.21679200645134    1.07292450806269    3.69902502459436
C          -6.18233092355601    0.26039233537003    4.36277241713977
S          -5.66800048586219   -1.25686225146992    5.02350060007553
C          -7.25721913530790   -1.60369099023191    5.64522511243022
C          -8.13658226821895   -0.58299830148457    5.32684941812469
C          -7.52640570025976    0.47607925340248    4.61251637462320
O          -8.13484243601950    1.61422275431248    4.18590903827099
C          -9.38489685569790    1.90647789051294    4.77320631424573
C         -10.36257926609527    0.74983603255291    4.65419719720773
S          -9.83796072840176   -0.61927103644112    5.74385514316465
C          -7.47343214845672   -2.80229606545084    6.37145971731074
S          -8.98315769730049   -3.21431987493427    7.11075728556532
C          -8.31299233440479   -4.69565907675145    7.74210812374099
C          -9.12330346889770   -5.47221157993368    8.63394277153079
O         -10.29978973754858   -5.28349729843748    8.85168732847132
C          -6.98159091582338   -4.86035325985856    7.35636958966904
C          -6.52263851848853   -3.77663553220630    6.59404177666957
C          -6.13820527350831   -5.98829760661099    7.65435339268277
S          -4.39899381642148   -5.75734810930613    7.64425846974622
C          -4.13346803872361   -7.42942950497923    8.02170163905512
O          -2.92557588699919   -7.94237587047079    8.17158669969917
C          -1.82057674273577   -7.08419105369101    8.01469117616815
C          -5.32348691274946   -8.12991696981746    8.13502926428079
C          -5.35996973451355   -9.56541704250633    8.44846394796986
O          -4.35590541090402  -10.22347640262185    8.60240327221406
C          -6.74132267108139  -10.16636870874058    8.57078882984666
C          -6.44564311472623   -7.28919565254098    7.91635785814940
H           0.52313425421353   -1.66031829026572    6.08633918654615
H          -1.15587610653838   -3.12237883427046    4.37511329906384
H          -2.57543100722830   -2.13081934837197    3.95736198411187
H          -1.64384434240192   -2.74638089075628    6.81512145215656
H          -2.99430812182598   -3.52350336298913    5.99004646740740
H          -3.06995806622771   -1.80190497617487    6.37107791418408
H           2.72721631527219    3.55745358857430    5.78780402120158
H           1.52726141810002    4.54840292665242    4.92898855790295
H           3.71846701036096    2.81363198070090    3.66480401585101
H           3.70579160793146    4.57834203135023    3.72569265605749
H           2.52108341832090    3.71599180498149    2.73425576058376
H           0.19697196200687    4.24955140927620    3.19065603901816
H          -2.14286659541193    2.35862599820994    2.62449344829741
H          -0.04988929599429    5.12622235793489    1.04391668258151
H          -4.33681855975917    6.14929604856533    0.13795434957760
H          -6.40197164685058    2.75118200740272    3.05157628902485
H          -4.21065188192796    0.67712648263112    3.66232092573718
H          -9.75293978307386    2.77830333922437    4.22643312273883
H          -9.25319804019023    2.17360638315651    5.83085193841331
H         -11.35624859624101    1.03830673615291    4.98848594074256
H         -10.40465922605263    0.38257946652995    3.62857137767217
H          -8.56699780442236   -6.26993741893012    9.16386574581363
H          -5.52261352499304   -3.70403298664452    6.20391263974109
H          -0.93670215727482   -7.69656381473126    8.17826855754186
H          -1.85050496777562   -6.26848910945805    8.74476814674299
H          -1.79783825181664   -6.65686076794946    7.00644860555470
H          -7.27829632029683  -10.06350237201571    7.63040151669084
H          -7.30381642590406   -9.65812599793073    9.35077156258755
H          -6.65056753776088  -11.22021180311515    8.81984704488022
H          -7.45593300555182   -7.65240657564330    7.91535346722903
