98
 SCF done       -199.019084349230          0.000566962956
C          -2.60553306052362   -1.57199362984870    0.87554370198726
N          -2.76030152401357   -0.56899160075517    1.77256051684732
C          -3.15953331287067   -0.71632640083324    3.15070784851453
C          -4.66199989476384   -0.95257214023085    3.27626161705368
C          -2.54964859663254    0.69376069790321    1.17193332006159
O          -2.64763341125200    1.74474326918843    1.77881116918274
C          -2.22234258761354    0.38157333985152   -0.19905591688946
C          -2.27305179227288   -1.03414201834067   -0.34243290468162
C          -1.93384481822563   -1.36012085946699   -1.71802837163434
O          -1.84604867343057   -2.41217298989970   -2.30413628581543
N          -1.68696958670520   -0.10557454680940   -2.31254297541516
C          -1.35199901705477    0.00229033626514   -3.71427671550915
C          -2.53549118989134    0.47557678927201   -4.55300048478262
C          -1.85139961485089    0.93300149449624   -1.43129747586581
C          -1.63272301057923    2.28579295149047   -1.77632665447694
C          -1.80206402035177    3.28729531511055   -0.86317371829895
C          -1.64248880029342    4.67928494865159   -1.03982070954308
C          -1.68283429942891    5.52616748883160   -2.15457149797660
N          -1.73446361423404    5.24561766557734   -3.52979519523849
O          -1.46381726992059    4.12281076120040   -3.93152905139332
O          -2.04801955853405    6.16272452961460   -4.26965197387701
C          -1.74525339302511    6.88813045579168   -1.70648650963165
C          -1.76331741628092    6.91491236815635   -0.34764151803904
C          -1.66509008786361    5.57128874800506    0.13487839089674
C          -1.45063041679892    5.18515595233865    1.44688147385396
C          -0.65483115527291    4.08806836962593    1.88606880505969
C          -0.44086723666587    4.20642261137524    3.23075253780526
C          -1.15032074172763    5.34445847506177    3.71623557703390
N          -1.20092864145051    5.68631665305343    5.07851988965137
O          -1.89675808256055    6.62895161341943    5.42118850131867
O          -0.53522704858341    5.01352888961729    5.84696759144481
C          -1.81297363862134    5.96301670338753    2.65113854830429
C          -2.74412426958257    7.00974419784831    2.72320366643926
C          -3.74411554644216    7.22718066434319    1.80831210426586
C          -4.61557898963558    8.33137052791751    1.82165601438963
C          -4.55669350252705    9.48648216431064    2.59228283793890
C          -5.60674145973661   10.35583608637590    2.20985994287294
C          -6.36077650073431    9.65308428660265    1.15134837737050
C          -5.75364475137871    8.46061766867220    0.92377489990953
C          -7.49777875578349   10.11500667636311    0.47850439428955
N          -8.43180259061342   10.46005305045989   -0.09422830776760
C          -5.86350318008095   11.62916376539481    2.67936087815256
C          -6.90472873037318   12.50795546129363    2.28816134076883
C          -6.77419426837598   13.70709830979294    2.96299607911354
C          -5.60839414308950   13.59925683809285    3.83414040360825
C          -5.05934840013704   12.36863695028886    3.67623640069918
C          -3.90512172962447   11.91859285668613    4.32778903541214
N          -2.94654457656250   11.59096045968295    4.86884044915676
C          -7.61004690684988   14.83797315538525    2.79488297398505
C          -7.42346774647769   16.02739657002472    3.42151905676888
C          -8.22547723224246   17.19532862033818    3.22412737531084
C          -7.91999519260188   18.37560121640436    3.89687812417538
F          -6.88342282441002   18.38811500994788    4.74994185692564
C          -8.63587748277552   19.57297245218716    3.74263818336259
F          -8.25732657716642   20.62195845083550    4.48377429792012
C          -9.72536088838294   19.67798499893483    2.90171043032022
C         -10.08066974660849   18.50699287466208    2.19653691727508
C          -9.34786919036636   17.27686789159054    2.35119532637416
N          -9.85159920356566   16.31306479800046    1.58449256942486
S         -11.10197141686687   16.89285979392061    0.75620577797782
N         -11.07135480455041   18.39196344838003    1.31354293969408
C         -10.46233683115289   20.92924565556323    2.72573455004041
C         -11.83227733427603   21.00663334248580    2.83823707098585
F         -12.54166443674855   19.92058585674749    3.17069655970230
C         -12.53257886919551   22.22473928228217    2.66865403986212
F         -13.86468476317627   22.20192439411878    2.81057120429646
C         -11.90253175517597   23.40226449199062    2.37914713826776
C         -10.50590222138006   23.36553265705527    2.24605465463861
C          -9.78447925921152   22.13096003578840    2.41603204290658
N          -8.47620198224761   22.28598145158629    2.22064637644430
S          -8.18532276338949   23.82699086655278    1.88752620249149
N          -9.68994012958088   24.37782158332643    1.95115079778265
H          -2.73196906955719   -2.59987809340387    1.16108992384733
H          -2.88503444570573    0.21303940475211    3.65667470685214
H          -2.60377590358777   -1.54657479978859    3.59484699156096
H          -5.20956738699058   -0.11450502901391    2.85222656443793
H          -4.93201461566813   -1.04976968971494    4.32369980545019
H          -4.95391267695997   -1.86092950716688    2.75382190828183
H          -1.05583488897106   -1.00298014118519   -4.02662210965624
H          -0.50188212551003    0.67808664339814   -3.83742590092725
H          -3.38771397657206   -0.18368244775233   -4.40553754508339
H          -2.26209073023857    0.46047908709535   -5.60386337380592
H          -2.82230028611410    1.48987032399061   -4.28830340654536
H          -1.30952087186518    2.50974868553501   -2.77985851454177
H          -2.09792550552706    2.99997469382540    0.13767800065094
H          -1.76184932913105    7.72630464779067   -2.37712783698701
H          -1.73645677390498    7.79052857235876    0.27090881402375
H          -0.19155385174800    3.36856252806055    1.24014298071618
H           0.15593434467629    3.56737877026443    3.85387407393000
H          -2.70674488649884    7.62290142256499    3.61503337201544
H          -3.91138462299679    6.49286590944845    1.03027707140452
H          -3.83095435341987    9.70228686500827    3.35112414914264
H          -6.05133944018606    7.71761081363318    0.20684589142721
H          -7.66987003398467   12.27769243732400    1.57322830213614
H          -5.24469074649613   14.36788882761910    4.48949738452168
H          -8.43283237248912   14.73398885348423    2.10153318493995
H          -6.60524938720240   16.14617974268992    4.11830621727532
H         -12.45226959779380   24.32003637512931    2.25802283252257
