122
 SCF done       -208.823232344213          0.000712812560
C           2.00000477653442   -0.71818955737083    0.49268254924315
N           2.83422553351020    0.35147485652357    0.42448081377857
C           4.26157585216853    0.32272603955795    0.61714123987967
C           4.62652394979640    0.16484630668643    2.09115883450962
C           2.11536769144132    1.55672304559989    0.20867740589081
O           2.65220326705643    2.64096138296759    0.10621324224307
C           0.74249118882744    1.12496254651916    0.13924885284274
C           0.71183962581576   -0.29146147229240    0.31925433450919
C          -0.67220529070825   -0.71027728267585    0.23366344989645
O          -1.20010311450588   -1.79849280154317    0.29332114333504
N          -1.38914875110252    0.48864285539614    0.02662176902074
C          -2.82059309858906    0.43221959295755   -0.14883086817297
C          -3.56494945035327    0.56439384129151    1.17841936025514
C          -0.55805572547801    1.58730390637224   -0.02527010401874
C          -0.87512975997096    2.95690279181538   -0.22394959147964
C          -2.08346715119593    3.56592197955684   -0.13169023665573
C          -2.34923842341445    4.94899749533285   -0.36266688289999
C          -3.60924432831000    5.45297513020082    0.04979009596401
C          -3.93205574139104    6.83559065584044   -0.07600511261450
N          -5.17139752598264    7.27385462335076    0.22293506946298
C          -6.00123541079439    6.43619437699723    0.77301803093427
C          -5.64645244902014    5.08986968103292    1.00394400682224
N          -4.50545921810242    4.60607349136092    0.60250999134020
C          -2.97487139322363    7.76459068350014   -0.54847209105308
C          -1.73326035008283    7.27043562677027   -0.99428728062982
C          -1.43965473500912    5.86676775971956   -0.94730401862023
N          -0.27683370883762    5.41961875631084   -1.45839360558684
C           0.61007667614588    6.28412796148357   -1.86512244609071
C           0.37416041180905    7.67000463237896   -1.78046618561742
N          -0.77858883595714    8.14151250502954   -1.39237678531473
C          -3.30192759370385    9.15631019435510   -0.39398281073805
N          -3.11791895391169   10.16708202607933   -1.29181336264516
C          -2.68267329002227   10.04288656858052   -2.66085966801981
C          -3.67989732480249    9.24772806467976   -3.49857117332098
C          -3.62164318762329   11.39749750240877   -0.80151760570939
O          -3.60265028934495   12.42635041940180   -1.44328893028218
C          -4.10666809284966   11.07787208868145    0.52087053114712
C          -3.91425231744868    9.69498346978579    0.73441484719928
C          -4.35136667825940    9.39151306010583    2.07984684831542
O          -4.37080581857360    8.36438295456334    2.72645802149760
N          -4.81084205826170   10.62746973672411    2.58478746054731
C          -5.33204532391830   10.69180837782194    3.92857237899840
C          -4.26190096012985   11.11071976589828    4.93486512564894
C          -4.66126601397351   11.64678412146173    1.66998677832441
C          -5.00391245618787   13.01714077010470    1.75077490774046
C          -5.40912088123645   13.73964026264645    2.82926669183915
C          -5.74436814906469   15.12589521759559    2.83910894447092
C          -5.90528444874848   15.94747600437132    1.69181452272809
C          -6.31014946852144   17.31802476367469    1.81110951585324
N          -6.59124078873600   18.03806768087945    0.70047005660131
C          -6.42940515730463   17.47572223085596   -0.46515601611731
C          -5.95807983618986   16.15415078921792   -0.58528506710217
N          -5.72344062949543   15.42035183167877    0.46554238195046
C          -6.49595494028911   17.91386388477203    3.07429219047873
C          -6.28376511483820   17.11698964607195    4.22224304598716
C          -5.97201310478890   15.73108119199219    4.10439260856980
N          -5.89876941119082   14.96839520383108    5.21770000490601
C          -6.08782435709401   15.54015845016259    6.37268810956714
C          -6.25012333402138   16.93782519951259    6.48722787806580
N          -6.33120513139438   17.70148833327135    5.43772114009757
C          -7.02683387963414   19.23527518778032    3.28661089536805
N          -6.65961231921614   20.39862591116605    2.66987125245923
C          -5.54085821507524   20.59346694609494    1.78079948001012
C          -4.21174696563018   20.32785333057635    2.48084399471725
C          -7.39209823632679   21.49994931686147    3.15987320567485
O          -7.21288647547361   22.64005638070515    2.77883470407071
C          -8.29688767643529   20.93015667522816    4.13130010856747
C          -8.02882567547536   19.53351213198428    4.19727466801951
C          -8.96323433442030   18.93867347866933    5.12273517554476
O          -9.16274787456837   17.79664361446362    5.48421735555923
N          -9.72377094470011   20.03555511180897    5.58660756150169
C         -10.72808181488512   19.85872118746071    6.60551971247649
C         -10.20964139007684   20.25972976749076    7.98488252394852
C          -9.33748327688039   21.21691525994735    5.00144611446003
C          -9.96361529443219   22.47873685932007    5.27829508478676
C          -9.57307597389855   23.62067918973732    4.70852944858159
H           2.38262482839421   -1.70955887086809    0.65223789336766
H           4.64283067572793    1.27511045680296    0.23867490700624
H           4.68880407407608   -0.49532938215816    0.02916530447187
H           4.21423892203345    0.98932670739380    2.66771348234447
H           5.70670299939336    0.16421452193339    2.20680483672420
H           4.23168351911801   -0.76827534404925    2.48729138241599
H          -3.03617071176261   -0.55255591991118   -0.57640714886406
H          -3.12696890976498    1.20156885003845   -0.86022432765706
H          -3.29916924459355   -0.26558357501359    1.82839331481526
H          -4.63679514361118    0.54000507300912    1.00228226577027
H          -3.31358972190275    1.49388901245273    1.68393735429212
H          -0.00533926776988    3.56372283203908   -0.43779283788947
H          -2.95838573863547    3.02817796596114    0.20035113929542
H          -6.99234288744589    6.80570102733620    0.99672207299154
H          -6.33404007728004    4.39347560902011    1.46456626196348
H           1.52259430980959    5.88353092546883   -2.28374712174260
H           1.12129905560988    8.39559409376744   -2.07249117040428
H          -1.69889558518256    9.56758321814266   -2.68035627914825
H          -2.60250877464729   11.06544858444041   -3.04024954963841
H          -3.77576183468289    8.23201858050913   -3.11977098406226
H          -3.34141064932616    9.20380300822008   -4.53023809761477
H          -4.65891880713417    9.72102918611813   -3.47164234795796
H          -5.66865892727142    9.67822090549119    4.16881823507098
H          -6.19180963232585   11.36439404685090    3.95413380951028
H          -3.47178435717266   10.36417997365191    4.96017719029717
H          -4.69931723461369   11.18987448405402    5.92622249863835
H          -3.82348185109648   12.06924041960147    4.66751330729050
H          -4.89795049490815   13.53165383388556    0.80490145798987
H          -5.45532684205706   13.30077638488479    3.81397748287180
H          -6.67377474317645   18.07662204795986   -1.33095176795180
H          -5.77991939272949   15.69162283134788   -1.54600232672819
H          -6.06172013903304   14.89814389766418    7.24279392579971
H          -6.27596041464974   17.42697741794696    7.45124891569932
H          -5.59627538536029   21.63707345861327    1.45885262975131
H          -5.65624549045960   19.93863893147382    0.91368247880729
H          -4.10031745774311   20.98126893602978    3.34325535436575
H          -3.39069698765745   20.51362709695481    1.79372540165157
H          -4.15540710306067   19.29511890994969    2.81936646970172
H         -10.97393009198685   18.79277190734656    6.60223809058925
H         -11.62542627270741   20.42721078128377    6.34540498995633
H          -9.34178989488565   19.65700478843426    8.24092001168281
H         -10.98102640546753   20.09623324934292    8.73264167905061
H          -9.91917779265009   21.30791595892836    8.00212020512010
H         -10.78664342523081   22.47328493163277    5.97976301313608
H          -8.75564914509705   23.64949850205928    4.00768289557001
H         -10.06493060125613   24.55165817285293    4.93221807794627
