94
 SCF done       -160.592144791018          0.000553684605
C          -1.09936986431732   -1.29339165777661    1.83676735778751
N          -0.40109548653041   -0.87198916200468    0.74969374216508
C           0.59616855256553   -1.63250573467902    0.03960576744270
C           1.90757874427500   -1.70294936553241    0.81767744600898
C          -0.71629242859225    0.46977842781242    0.42022665073311
O          -0.21943752471747    1.06630844247856   -0.51366469353196
C          -1.69502085737764    0.84170141610750    1.41054762064559
C          -1.90663585368980   -0.27849986476520    2.27158032304161
C          -2.88624485036665    0.11605463079723    3.26053438266936
O          -3.39021352425074   -0.47158039972310    4.19104658574152
N          -3.19300070831148    1.46015070933474    2.93778900901742
C          -4.21073793592305    2.14870686868220    3.69322143632474
C          -5.52571023244393    2.24995229602128    2.92354313716362
C          -2.49033773027719    1.89615147058325    1.83371949379133
C          -2.47728461404371    3.16079056365031    1.18391430777300
C          -3.09545509699750    4.31914263368142    1.51722077262426
C          -2.96192160127330    5.52501282744020    0.77428005637048
S          -3.74328379015144    6.97260396986420    1.36642710973365
C          -3.14679615393568    7.91437429761571    0.03860103826109
C          -2.38566209333244    7.11369630684874   -0.81675829354502
C          -2.28336097968625    5.77826573537546   -0.39831008437106
C          -1.78586532244464    7.62079581448748   -1.98238707496742
N          -1.30014195476976    8.04392796811431   -2.93131603222389
C          -3.40088986500155    9.29811633028584   -0.11540184753888
C          -4.11604282980079   10.04943490945356    0.75516978229305
C          -4.35074165366091   11.44040996982398    0.61417228786469
S          -3.74545541789992   12.36420524224584   -0.73602485959167
C          -4.43221695704416   13.83811124228915   -0.12274017499147
C          -5.10090024101552   13.59712285485451    1.08021150401829
C          -5.04902716531597   12.25130740851728    1.48179065399068
C          -5.77383312382832   14.55916593440444    1.85113102161142
N          -6.33785058347406   15.29943348403665    2.52306067840079
C          -4.24673667151809   15.03330659954439   -0.86239648686457
C          -4.70188787352666   16.25902490470708   -0.50380843878422
C          -4.50843190206919   17.44463334258784   -1.26168577741103
S          -5.13958995764056   18.95492506597813   -0.66415898259484
C          -4.54762550866205   19.82849762396538   -2.04070767741502
C          -3.88729399007411   18.95669999095993   -2.91784239983477
C          -3.87037721585719   17.62690235831392   -2.47257842100372
C          -3.29360465808011   19.32546225322404   -4.13578047999107
N          -2.79687591693902   19.57605171808178   -5.14040956844777
C          -4.78775404458032   21.22002264118407   -2.12487596266129
C          -4.37996062971929   22.02573951459737   -3.14172090916395
C          -4.66951373655172   23.41135926877293   -3.17705508830122
N          -4.28380330131823   24.23976801384589   -4.20709143890451
C          -3.58708264706333   23.85102528291742   -5.40994134718484
C          -4.51676577682144   23.17912262954813   -6.41709978863250
C          -4.70068670261942   25.56597315478522   -4.00374975072919
O          -4.46710183341073   26.46794183575796   -4.78369173375574
C          -5.39158615210604   25.53315359459830   -2.73327649098877
C          -5.35232135500945   24.19546963536145   -2.25151419262120
C          -6.03913879740856   24.16193502339029   -0.98389001026006
O          -6.26947673184395   23.26003431559134   -0.19944385077629
N          -6.45953202109665   25.48929735685486   -0.78069872539503
C          -7.14875948236598   25.87124052573653    0.42740662146303
C          -6.21327969938042   26.55082692889764    1.42477929321475
C          -6.07787842855373   26.31275221849983   -1.81313597078601
C          -6.39387664732682   27.71104329690145   -1.86603885697186
C          -6.00195855200229   28.50571471473982   -2.86451379095272
H          -0.97714510427230   -2.28971789387047    2.22014750681042
H           0.75487208312611   -1.11977150968459   -0.91294964160636
H           0.21220390851042   -2.63876818044871   -0.15285967528909
H           2.29376911141107   -0.70131503481625    0.98933950072100
H           2.64312370568846   -2.26749290986626    0.25176469702145
H           1.75847935784077   -2.18821166306603    1.77978801826507
H          -3.84680525435407    3.13284905051459    3.99995507884039
H          -4.36432469229843    1.54416860917635    4.59283843597508
H          -5.39105287976506    2.77063909639690    1.97808249691226
H          -6.26125649796093    2.78475465830663    3.51842819122294
H          -5.90649330499541    1.25308411792034    2.71537701940354
H          -1.84092972768173    3.15057239256731    0.30844212133999
H          -3.72289382674465    4.39375347299109    2.39156018041300
H          -1.73149190312295    5.03483982442047   -0.94428784535433
H          -2.96960095207150    9.75934251734164   -0.99614525276949
H          -4.54401683531957    9.58547395049871    1.63538735294448
H          -5.51056039284649   11.88998319152980    2.38408561064775
H          -3.68887548460419   14.91886306949882   -1.78177317479839
H          -5.25407404987869   16.37587349976746    0.41741776308811
H          -3.40487901436154   16.83500965924351   -3.03161580914633
H          -5.34754821432686   21.65108344496691   -1.30448598925406
H          -3.81559939837096   21.61270991449873   -3.96328399185891
H          -2.75303275498908   23.19125441028373   -5.15588602806873
H          -3.18954111041471   24.77558826008368   -5.83809010557891
H          -4.94518265144683   22.26792299641059   -6.00595374280397
H          -3.96006403134563   22.92503043386841   -7.31441453133161
H          -5.32528518985142   23.85481130285700   -6.68582765425058
H          -7.53282993526448   24.94294361155946    0.86018781365476
H          -7.99384608164176   26.52014698366118    0.18059908607444
H          -5.40448810822983   25.87545416020611    1.69283515830102
H          -6.76180249998551   26.81116965024516    2.32584331171175
H          -5.78208522221130   27.45562573159197    1.00187567396875
H          -6.98149867475705   28.10972443878936   -1.05049933362834
H          -5.41667017011788   28.13058541938979   -3.68735675577398
H          -6.26058482615713   29.55045994354156   -2.87854436474021
