103
 SCF done       -182.965025827101          0.000361799461
C          -2.16368982402363   -2.48802661459803    1.77862444594276
N          -1.32165216370235   -1.71457689265537    2.51312842309188
C          -0.67156019792755   -2.10351512561063    3.73886356794361
C          -1.64144367732461   -2.09154801565516    4.91772755991147
C          -1.19977259493246   -0.41360212966810    1.96246423572238
O          -0.50099528948479    0.45374173375745    2.44727127553141
C          -2.04653898424188   -0.45716773714077    0.79752210827867
C          -2.62716040173357   -1.76010948202606    0.71769804762410
C          -3.47743269355228   -1.78526252840393   -0.45263942529248
O          -4.17093551450033   -2.65017119809419   -0.93922405771105
N          -3.36524413350074   -0.48511156855975   -0.99849298087584
C          -4.03584069257578   -0.18487543237267   -2.23981340362107
C          -3.06964600124314   -0.16354650812779   -3.42196477263007
C          -2.51030609368706    0.31032353649887   -0.26264730908381
C          -2.12852160521978    1.66430681035563   -0.44752133625021
C          -2.55991089113558    2.58014016447782   -1.35304600001829
C          -2.07039356446990    3.90712880776649   -1.37047522469250
S          -2.67928539542283    5.09639918855208   -2.50671258959316
C          -1.65921254870985    6.39005699635190   -1.92812560035885
C          -0.87715835581598    5.89594885057199   -0.89302586353768
C          -1.11216285008330    4.53191000411007   -0.59261889423714
O          -0.28853929508973    4.19107207709622    0.42549969830167
C           0.38857416260771    5.33100765220435    0.69036241246108
N           0.09659720352202    6.35290812845905   -0.03468226891602
C          -1.71047842706924    7.68967573505999   -2.48867146767392
C          -0.90830419065672    8.68769879860617   -2.05430464348278
C          -0.88705958529431   10.03877565838891   -2.54917583023618
C          -1.81452144600131   10.54050236952797   -3.46272667301025
C          -1.76573817899468   11.85695768297124   -3.89163745599199
N          -2.81621630574115   12.24391985881391   -4.80330658667867
O          -3.23666747485081   11.38784258488703   -5.55112844393700
O          -3.24482907071829   13.37867568331897   -4.75490325081423
C          -0.75337675827600   12.73883824071648   -3.46564323029211
C           0.16886511121564   12.21940582256395   -2.54764723399633
C           0.10045824526562   10.92494293277910   -2.09160982295217
C          -0.64065746625299   14.09902190184623   -3.96113442218100
C           0.45880138450448   14.85297377371758   -3.91165573362321
C           0.50580563517437   16.24183877530007   -4.44278587884083
C           1.52327906259718   16.40757604456096   -5.58285773275512
O           1.76517210611256   15.62965743195145   -6.45199599951239
O           2.13563787257215   17.59755434191813   -5.46233574358129
C           1.60467320978826   18.34939653720711   -4.37701725268912
C           1.00797626402825   17.28819615158981   -3.43880133964927
C          -0.02602524880835   17.80441111433752   -2.44812351367634
C          -1.10192841348712   18.65656085088473   -3.10802416106393
C          -0.54748692637447   19.78359620254794   -3.97146985640163
C           0.58745195215384   19.37468346549296   -4.92829341105519
O           1.26229223857457   20.58980280559029   -5.22809789832689
C           1.00281419375437   21.54906586008804   -4.32673442799655
O           1.48770574621393   22.63734374855052   -4.37066306033762
C           0.04083823820511   21.01429821341768   -3.25714679430978
C           0.84335905383837   20.76459770048608   -2.02059160947571
C           0.45606565708321   21.14074064970740   -0.80256299726148
C           1.22174440216961   20.94791128994004    0.41973667236434
C           0.56970988986119   20.97818428204556    1.64742958737639
C           1.26438669483265   20.78709979512834    2.83370576842046
N           0.48678565195354   20.76977257863741    4.04536359213126
O          -0.59803501182955   21.31398450299601    4.01790427277304
O           0.94408935112527   20.20237219961746    5.01539641846684
C           2.65364439165415   20.58949730059169    2.84849351177572
C           3.29621581201115   20.58055218063979    1.60651925928288
C           2.60640157216235   20.74385990429881    0.42608260210219
C           3.43299441625116   20.46642697499782    4.07500316593427
C           4.50401513215103   19.69200186202798    4.19326350682019
H          -2.36780185912394   -3.50480631291269    2.05962666658938
H           0.12896368370125   -1.37812880212413    3.90762287368533
H          -0.23508769039148   -3.09907902149504    3.61448002651314
H          -2.05722764389229   -1.09549534775858    5.04837863494040
H          -1.12039536050162   -2.37408746389201    5.82815427280985
H          -2.45813326941825   -2.79050087919065    4.75060193988768
H          -4.58349498805536    0.75675386263169   -2.15053190539268
H          -4.76155184280206   -0.99220649077043   -2.38096013200860
H          -2.28184152675711    0.57177208722009   -3.27480738914266
H          -3.60842680376267    0.07604693138909   -4.33464881296538
H          -2.60976395794689   -1.14196709741362   -3.53719889624762
H          -1.39318120833351    1.98406660152762    0.28086843303682
H          -3.30417126243279    2.35567310547590   -2.09958771164997
H           1.11660386389620    5.31265421517613    1.47731948164793
H          -2.42258446174205    7.83459562906927   -3.28814322663876
H          -0.20341706506559    8.45797423879750   -1.26647669443176
H          -2.60892954156842    9.91667448874513   -3.84219452676389
H           0.94557869746769   12.86558374970422   -2.17150402434978
H           0.82286961324766   10.57330660664351   -1.37007497217378
H          -1.52601954858658   14.51318777685349   -4.42096139872716
H           1.38713545304218   14.48449941501167   -3.49881608651300
H          -0.47429535982427   16.51937059503900   -4.84386899676235
H           2.44449040048252   18.89155280893866   -3.93293446636655
H           1.83510656941408   16.83899729020864   -2.87563665750704
H           0.48057045225650   18.38608714781042   -1.67731198482961
H          -0.49629170405754   16.94800658952066   -1.96110850480166
H          -1.74111944985325   19.08823206265683   -2.33660989028378
H          -1.73319144711485   18.02368241401004   -3.73472912674949
H          -1.36737608592005   20.15784362203064   -4.59574779652231
H           0.20190789520357   18.98435642493732   -5.87631502738241
H          -0.73021666746827   21.75559754031879   -3.04012544501142
H           1.80051381530259   20.28392328411489   -2.16729318430229
H          -0.51419374526237   21.60166721032968   -0.67170852209507
H          -0.49832232520606   21.13253424405541    1.69925851143516
H           4.36901114011208   20.46717624330214    1.58450083261025
H           3.15163703186479   20.74939418551897   -0.50483948827039
H           3.09250255102168   21.03948444979034    4.92604317476801
H           4.84445834973597   19.05492609826912    3.39344163051933
H           5.05828791978583   19.64158597172550    5.11350445601679
