109
 SCF done       -177.827627779429          0.000369805886
C          -7.25886035843049    4.28509740870090  -11.39833002006138
N          -5.92631814390285    4.56694552292072  -11.41407217960995
C          -5.03498838349777    4.36490383895145  -12.52687493573619
C          -5.21729502910134    5.43928670854985  -13.59646846302469
C          -5.50900541498106    5.15841995798946  -10.19819062440875
O          -4.35628160739832    5.48678783690162   -9.97041733852172
C          -6.71145144291381    5.21658298281291   -9.41893123061598
C          -7.77652781304773    4.66291583564428  -10.18980664412400
C          -8.97219700053476    4.72029207175305   -9.37461500500193
O         -10.11667819802399    4.37887341063747   -9.58203641335302
N          -8.55078860944795    5.31223467247592   -8.16443594177511
C          -9.49347847611470    5.46485861829995   -7.08401161710625
C          -9.30681243463826    4.39707892885569   -6.00815537790872
C          -7.20144962764593    5.61267346304078   -8.17685126638040
C          -6.36597812402507    6.20711521930142   -7.21005557350821
C          -6.64534044840733    6.68276211248630   -5.96000859186608
C          -5.71781796786694    7.24684684739312   -5.06765714570485
S          -6.36240819875142    8.10893295459694   -3.69933351226364
C          -4.79838173831305    8.56797472453970   -3.10358532072937
C          -3.79265456462530    8.08763003218441   -3.97228372420571
C          -4.30339340341123    7.30489518495552   -5.05133119023777
C          -3.39551200611723    6.67000893579532   -5.90993020135052
C          -2.03730509801394    6.88569188235234   -5.80172655032512
C          -1.11501607180098    6.20153806250615   -6.70462466658034
C          -1.40385984541443    5.79543917356977   -7.93546569964854
C          -1.54359147742772    7.77466481604420   -4.80687152533777
C          -0.08267107951116    8.09795319817482   -4.73173598843601
C          -2.41256793262060    8.34302645267097   -3.91063649246728
C          -4.75365331812703    9.29002201904997   -1.89875549674232
C          -3.66921775501844    9.42558692907941   -1.07908436452815
C          -3.60243618792039   10.14380229644884    0.13877450580881
C          -4.61775573792322   10.99080796894099    0.66786540444398
C          -4.47091795786532   11.65174211627965    1.93313688315482
N          -5.50992167085858   12.32182364553228    2.45616657036487
C          -6.61877379968930   12.41714299147325    1.76800201901119
C          -6.71899208558650   11.88093301705700    0.47802209244783
N          -5.74546420880107   11.17999248164345   -0.04221105828923
C          -3.26703801587645   11.54728642752409    2.68867332547139
C          -2.29040392396703   10.64527916259814    2.18499425515545
C          -2.42900356050838    9.98608094268052    0.93003816782797
N          -1.43978101015987    9.18560048596103    0.49090381938050
C          -0.38773579646900    9.00986255780695    1.24910044400970
C          -0.27263170542796    9.61630865823732    2.50845167636956
N          -1.21058867750718   10.41801102755271    2.94259127962702
C          -3.00450849937817   12.19215007051499    3.91722061422522
S          -1.72014141515237   11.56751507340391    4.93010614322853
C          -2.10002374996794   12.67259206133930    6.25433895366155
C          -3.09689691223302   13.53957104769647    5.84361133806505
C          -3.59774184772174   13.29979720402125    4.53847861867134
C          -4.49976633742920   14.31758497522592    4.12977298455073
C          -4.69230300896089   15.27611869311400    5.06574203703549
C          -5.55601558447931   16.48101414170313    4.98017806638990
S          -3.77497857169072   14.98698943868582    6.52949952462389
C          -1.33707053021435   12.57603652862351    7.43355487806264
S           0.20726092376647   11.78517503770277    7.33331170764984
C           0.54339335130125   12.00625253094342    9.01596023076159
C          -0.52498603576127   12.65090886312095    9.64763237482319
C          -1.59826104882476   12.96880068570415    8.75930292537038
C          -2.76208536186209   13.54725479715102    9.28235685275999
C          -2.86572491873637   13.85597690243376   10.61999970133253
C          -4.08188172169730   14.48103127109513   11.13323588126081
C          -5.29811354264350   14.30772339608110   10.63120676042217
C          -1.77669282681309   13.57614556818026   11.49959405777684
C          -1.88273043930212   13.89739384447307   12.95965065914493
C          -0.64677107482615   12.97925866729886   11.01288385110645
C           1.76520043800338   11.55834951195962    9.60433783068197
C           2.73875413451557   10.91870470477914    8.95228003290816
H          -7.73664226988990    3.82950125000115  -12.24568022161477
H          -5.20759827060947    3.37128879507109  -12.95194943342666
H          -4.02025384422752    4.41173313504665  -12.12173919610080
H          -6.23111031775442    5.42001802436816  -13.99065769343892
H          -4.52071682957609    5.27181749373308  -14.41335876691049
H          -5.02817978524515    6.42212394240304  -13.17172440904124
H         -10.48295998376877    5.35150483516685   -7.53831089523195
H          -9.41884346445408    6.47194203661734   -6.66555981705420
H          -9.47570415375756    3.41200120988706   -6.43628193276071
H         -10.02033560016713    4.55353814965703   -5.20348422439242
H          -8.30018256346790    4.42614363423628   -5.59708503384149
H          -5.35817675953284    6.30871186805091   -7.58176985256030
H          -7.66363082581906    6.68942810352828   -5.59931945237578
H          -3.74310117324351    5.97173140629893   -6.65050426558645
H          -0.11982927341681    6.03173286144256   -6.31490116835462
H          -2.35937674522139    5.95655125158765   -8.40565535226008
H          -0.66807252650396    5.28725759576223   -8.53600031290972
H           0.48924647506447    7.22309074936660   -4.42144331913042
H           0.09482507815202    8.89201651585831   -4.01059533518916
H           0.29035846252830    8.41685655758844   -5.70369143085096
H          -2.03164946579311    9.01873826806080   -3.16240712416239
H          -5.68963225932678    9.72147704816505   -1.57262432701844
H          -2.76191110057151    8.88407218782883   -1.30311363200443
H          -7.43854462827424   12.94113211079756    2.24152777629422
H          -7.59897914017911   12.01890200029943   -0.13611446030868
H           0.38784232205012    8.36580532521218    0.85733978331131
H           0.57475659920681    9.45462031140563    3.15877856192928
H          -4.97506935614373   14.33447449666629    3.16905707540262
H          -6.31560945459215   16.46278802236310    5.76161595089488
H          -6.04730174319706   16.51928898405694    4.01109366554858
H          -4.96509111467765   17.38696613024648    5.11456825708955
H          -3.58766306496928   13.76019238559730    8.62655927636069
H          -3.95589950943808   15.12692138169913   11.99147495579822
H          -5.49018060664641   13.65035717107007    9.80017205963395
H          -6.15510931103524   14.80835494072767   11.04836931940523
H          -2.77834795420802   13.44974980997262   13.38796137653843
H          -1.93638640255730   14.97526035857736   13.11341478614245
H          -1.01546589208130   13.52084550107623   13.49649044627434
H           0.16541875098305   12.74361725562452   11.68451838856927
H           1.87640340194904   11.77016319732957   10.65936136250344
H           2.65510899227980   10.69190495709581    7.90247795805510
H           3.63937579672263   10.60551014351910    9.44892834942666
