116
 SCF done       -204.533077207428          0.000534436713
C           4.64134425692589    4.26649536287041    2.96688715093644
N           4.34983194304097    5.56372369376336    3.24551852836451
C           5.23503627083075    6.51018539526583    3.87617039564800
C           6.32320215926585    6.98595548760575    2.91716477079203
C           3.06330776739424    5.91969723925364    2.76798043294466
O           2.58196025205084    7.02651724978439    2.90179192375552
C           2.57463959194282    4.70293359454214    2.16884306369895
C           3.58151994223123    3.70041558448422    2.31303155378214
C           3.07875881179513    2.48927168126033    1.70118471064730
O           3.55080809234435    1.38238359185797    1.57374478161091
N           1.80037738152696    2.84715552983210    1.20964345754155
C           0.97173553053248    1.83318540447177    0.60426325768559
C          -0.15153962136256    1.38040745457658    1.53389119970923
C           1.49265968910923    4.16215638849407    1.48803769402320
C           0.33915433579258    4.92441586475384    1.16124821677237
C          -0.73139058426835    4.60672698461092    0.39334228423239
C          -1.80289612610069    5.50016801230566    0.13404867737497
S          -1.89847828535478    7.09174029730053    0.83937110069645
C          -3.40106793506662    7.42878515667867    0.02247757235830
C          -3.79102197585608    6.33486286022186   -0.76310922542405
C          -2.88896018495242    5.26489670300166   -0.68261856185296
C          -4.99854561717368    6.26620891841841   -1.58578409594181
O          -5.30977791939018    5.29373194091910   -2.22951265670733
C          -4.07783594877320    8.65120315166574    0.18765424446150
C          -3.67748603930268    9.64810736764920    1.02861026092652
C          -4.40672681156382   10.84651558901542    1.16759717233726
N          -4.06749161792450   11.86451371226150    2.03072100377620
C          -2.89897299077733   11.92058398651882    2.87583069217344
C          -1.64367094968658   12.28653150487593    2.08798868589858
C          -4.98319848831085   12.92526894917448    1.97925009935421
O          -4.89151353144812   13.92789983537091    2.66316331681434
C          -5.96096569232028   12.51042890251221    0.99639911294900
C          -5.58334642898391   11.23724342094074    0.51862688695478
C          -6.56927205267843   10.81622280961909   -0.45524892738985
O          -6.66728243343917    9.79889173931100   -1.11747235129021
N          -7.48716312485796   11.87006197029193   -0.50182251385407
C          -8.60820689485291   11.85581821790065   -1.41270789168778
C          -8.33598752604008   12.69594515674703   -2.65705847353228
C          -7.14648161311287   12.89240909766314    0.35557306300096
C          -7.91848709168828   14.05681253978350    0.52913664717879
C          -7.56441668863849   15.04335001468842    1.40675007177651
C          -8.36273623375107   16.18387193664801    1.61529756804228
N          -8.05499866677967   17.17681766377308    2.51556560706526
C          -6.84763749117060   17.27825493569204    3.30219111711454
C          -5.68733250062293   17.82059277333498    2.47298985890808
C          -9.02337695741573   18.18467962486918    2.53873361356860
O          -8.97492064992581   19.14899824887986    3.27918808936107
C         -10.00728237986218   17.76771739056610    1.55663342065348
C          -9.58202208113508   16.53455734140164    1.01885910106518
C         -10.55250929106459   16.11852575645286    0.03073450062680
O         -10.62017716078743   15.13229610688806   -0.68053599555804
N         -11.50223231624597   17.14892329618087    0.02021650584146
C         -12.66578692330525   17.08917719851675   -0.83038690505058
C         -13.91661964797378   16.68289823588710   -0.05505732862284
C         -11.19476505622708   18.14505758763080    0.92075305449296
C         -11.94408711951849   19.33018340938938    1.08333510128795
C         -11.56913665219456   20.29551085548920    1.96979406652696
C         -12.25587515986143   21.51283495397753    2.14991998314482
C         -11.79495032567068   22.56909409322209    2.88270168563505
C         -12.73529011451143   23.62340400830801    3.36177303967487
O         -13.86453279056466   23.81428271495653    2.97545077017226
C         -11.99318364617846   24.31065519880388    4.42811265274150
C         -12.23258511353743   25.28718553806344    5.34699853562762
S         -10.81487410595990   25.56535174624812    6.33187777377375
C          -9.91045215084529   24.36512649424766    5.47944364937585
C         -10.66013887796501   23.78527515010167    4.50649946666146
C         -10.48389873490233   22.79278746298087    3.46070733495394
C          -9.27089035262200   22.34354874880065    3.01037729176699
C          -9.05756134431253   21.64197322184949    1.80596722426824
N          -8.81129391775070   21.14684142079181    0.80018622346374
C          -8.07476546069570   22.66702052525697    3.68342519781117
N          -7.09561428049631   22.91722686816213    4.22695316231137
Cl        -13.65880408663075   26.16989332723732    5.58904598282045
H           5.58077475371488    3.83490156462727    3.25949613105805
H           5.68252807662720    6.04957121901630    4.76195056229597
H           4.61395673580270    7.35529102626194    4.18502809836755
H           6.93334796395402    6.14987272559043    2.58234030717368
H           6.96393215723358    7.70851770997940    3.41455972170104
H           5.87379414549878    7.45884340962702    2.04736538540471
H           1.64160692740221    0.98986290399609    0.40827206360575
H           0.58263197949770    2.19025312732777   -0.35285221849528
H           0.27123751037050    0.95059038397747    2.43866051660865
H          -0.75522266045669    0.62361435636463    1.04054793423928
H          -0.79220991751263    2.21319968445968    1.81507367232266
H           0.37531805602942    5.92069668771591    1.58844184375434
H          -0.82659175036980    3.64610921470621   -0.08853301750461
H          -3.04118299286570    4.34646731607920   -1.22151733432161
H          -5.62250930542507    7.17500132651703   -1.58417543105017
H          -4.97971076145626    8.79208623022591   -0.39266681083762
H          -2.78215229606277    9.51579400144649    1.62067180893072
H          -2.77145009165088   10.96227062935120    3.38677797298180
H          -3.10257027899142   12.69381554984559    3.62190431543329
H          -1.44138839303419   11.55230828205467    1.31153386730856
H          -0.78973276369238   12.32948071404974    2.75799660738348
H          -1.76894017804130   13.26013106611024    1.62047521716911
H          -9.50272461445264   12.21668831373577   -0.89985477630224
H          -8.75417283980312   10.80995587861787   -1.69638727911869
H          -8.19418784142782   13.74112774685075   -2.39355444896534
H          -9.18068262696413   12.62311321920872   -3.33573855593588
H          -7.44509655987086   12.33566089275012   -3.16663457343456
H          -8.82834584357346   14.15962501353622   -0.04489496516012
H          -6.64992007185151   14.94599170767812    1.97405173161195
H          -6.59670057971567   16.30021993430413    3.71880588170343
H          -7.07284874298972   17.97011406539344    4.11829055293678
H          -5.44869494780563   17.14351307449538    1.65644029501206
H          -4.80899656329122   17.92825162797238    3.10243447088746
H          -5.94513246428221   18.79374814749961    2.06110548020181
H         -12.44466864495458   16.33602979657125   -1.59189738180060
H         -12.80909368981236   18.05512293077281   -1.32266795046980
H         -13.77478298789287   15.70156784860770    0.39104236243699
H         -14.76854772189322   16.63858997478140   -0.72779741148317
H         -14.13269898883402   17.39500594884045    0.73827668333968
H         -12.80362382646881   19.49074790444000    0.44725528378817
H         -10.70431177560249   20.11145208864292    2.59051223091654
H         -13.25735963506338   21.61292580495535    1.74529058290139
H          -8.89648621039963   24.16750675244136    5.76512189085519
