123
 SCF done       -226.297479112089          0.000443266644
C           0.04701806597805    5.56141894872037    5.10102591038597
N          -1.19655292548497    5.79043067722998    5.57586390055731
C          -1.63602937344350    5.57632083367032    6.93237743978889
C          -1.69435612713687    4.09413449965587    7.28439887092293
C          -2.02734131567749    6.36836471764140    4.58160158193222
O          -3.16871359218182    6.72815141536796    4.79008544945434
C          -1.17680170760594    6.42945717825698    3.41539770846848
C           0.09995745324325    5.93005697549759    3.77695139321821
C           0.98137217222793    6.11153550852146    2.63625019028184
O           2.12804481885624    5.79726556762833    2.43482353086509
N           0.17156517727423    6.76319012228490    1.67300827891237
C           0.73839245512051    7.11056575140539    0.39029881900822
C           1.46371668452442    8.45353571794099    0.43260264539185
C          -1.10300196231507    6.96403092287934    2.12551520232866
C          -2.19824536912197    7.58310370773043    1.47819945747957
C          -2.15356887011108    8.50908762317314    0.47826825986809
C          -3.29406050685654    9.14488894419932   -0.05866030942611
C          -3.36532882135661   10.45040984857385   -0.55001923602400
N          -2.31301949875421   11.35797906578470   -0.73399610155925
O          -2.59033807657763   12.45892970633130   -1.17891117978992
O          -1.17642725526591   11.00576110354380   -0.44652334297153
C          -4.73617339752184   10.78805909884457   -0.79085250523248
C          -5.51864457762129    9.72846257747438   -0.44541481791675
C          -4.67408937591974    8.64248321025325   -0.04463515304889
C          -5.06583369607991    7.31781355892639    0.05643255227065
C          -4.30478118978318    6.17625624752880   -0.34485683806101
C          -5.14780722798330    5.11136330025448   -0.47448341603773
C          -6.46318249003638    5.51036917375239   -0.08013890604733
N          -7.54680822360065    4.61922281068619   -0.00506832498675
O          -7.37513147357514    3.49372653993874   -0.44199820054335
O          -8.59275300301631    5.01039121495559    0.48766348862372
C          -6.44342717853775    6.85576045892746    0.28927114550869
C          -7.45699558330971    7.59172578115128    0.93559347796655
C          -7.15529238562912    8.57836695501807    1.83010967343580
C          -8.03933061313871    9.34996371079468    2.60611188984147
O          -7.46333335008665   10.02138377840248    3.62224992641621
C          -8.41858127442187   10.68777080541022    4.31371840660097
C          -9.65638610668806   10.45211169437018    3.71189377067558
C          -9.42781383785980    9.60243734868303    2.62767277661433
C         -10.43833134828174    9.14115491728495    1.65859254417479
O         -10.19363693418770    8.70524676764109    0.56142623600531
O         -11.67271348272945    9.29399759177709    2.14271254880036
C         -12.73014079659731    8.88632868069158    1.28451744784129
C          -8.05206763316606   11.43135391040192    5.45134571207586
C          -6.74372710579741   11.40991250674107    5.86653354336056
C          -6.12155271404130   12.01271569063773    6.96650462835547
C          -6.57983777279793   12.71003473516875    8.09886339248886
N          -7.87182682984495   13.10239771658832    8.45497775854493
O          -8.74564058605022   13.18397384951598    7.60623866374600
O          -8.06575853087015   13.35349662008778    9.63856651061762
C          -5.49175572039497   12.89034178627346    9.00097707633657
C          -4.37675500654714   12.28345277147627    8.49023591441457
C          -4.70028092534288   11.72363833504510    7.22939593223069
C          -3.82054930609434   11.01205213240025    6.40011651128723
C          -3.63807066581848   11.11070365563121    5.00333879598312
C          -2.50426428065144   10.41254567766844    4.65051966930108
C          -1.96707624694810    9.79072326047299    5.80562838580206
N          -0.86697489299875    8.94664599406376    5.79713425460513
O          -0.29110679939918    8.75663799711709    4.73240267338134
O          -0.51459099902342    8.41817036733010    6.85008810511438
C          -2.78997844072142   10.10210877551052    6.90637982581868
C          -2.80346886207182    9.53640119671667    8.18701813682815
C          -3.95539903514870    9.51341199384086    8.93982701319894
C          -4.16360266522205    9.35334934399733   10.31584135181038
N          -3.28874498703865    9.10936461278900   11.34661215485089
C          -1.92616767136980    8.64666801765225   11.24309393399810
C          -1.85241260504069    7.20578536010667   10.74602204291148
C          -3.90004276738628    9.28470082432065   12.60926405736448
O          -3.32387715753424    9.12316503426364   13.66049149824964
C          -5.25688561056904    9.69292051246486   12.29525315690357
C          -5.39789244460094    9.68192196937562   10.89821559870054
C          -6.72984360500145   10.14758710496029   10.57818734782138
O          -7.31149517832244   10.28170690731585    9.52390551846334
N          -7.30958045690856   10.43506416476481   11.84067758641772
C          -8.60762411194022   11.06763188126319   11.90263881523812
C          -9.73806846694441   10.05017704541486   11.78062691446640
C          -6.45182362204338   10.15222350078153   12.86153058700680
C          -6.65830183184255   10.28798960114767   14.27620603303182
C          -7.81208523032772   10.31649564487386   14.94554685096490
H           0.82404712693314    5.17807983231893    5.73590063023277
H          -2.63245474761571    6.02222547282721    7.00165410964048
H          -0.95973371985867    6.11022504384207    7.60701986946522
H          -2.37656586566122    3.57283013533445    6.61710415832133
H          -2.04677698989549    3.97440780621717    8.30497608994513
H          -0.71101722063349    3.63789447429907    7.20205429189795
H          -0.05112134509982    7.10330545000531   -0.36429412368578
H           1.46472938935675    6.32663909723627    0.15258253746864
H           0.79678251426546    9.26816695594667    0.70321225434356
H           1.89165112813625    8.66756024371388   -0.54268050639486
H           2.26599374243310    8.40940591180655    1.16433853351987
H          -3.15319989547706    7.34813407858543    1.93274325372957
H          -1.20518517472331    8.91221958505002    0.15419765544640
H          -5.05334772870878   11.73529624844879   -1.18393432106188
H          -6.58168991889783    9.65676927495376   -0.56743314347735
H          -3.26773089466362    6.20004599109067   -0.61713029442330
H          -4.90295557594433    4.12090412115719   -0.80873468907066
H          -8.48179317609966    7.28485702390488    0.77855177431181
H          -6.11569975148162    8.75782995603316    2.07857368846553
H         -10.59975153970293   10.84984165471055    4.02467703517667
H         -12.56351318304212    7.86438938166698    0.93849223639620
H         -12.78785127684029    9.54656304688223    0.41665743003907
H         -13.64064094638470    8.95041303704368    1.87360172422821
H          -8.81402655158263   11.98843737061224    5.97211724558697
H          -6.07475945535288   10.80893461078655    5.26331468170059
H          -5.57046607022145   13.43066944491536    9.92568048721657
H          -3.39600081535968   12.28416854870078    8.92601770705277
H          -4.21150120270078   11.73857175731704    4.34775370524616
H          -2.07030190952455   10.33568762328706    3.67111469336807
H          -1.88379219205745    9.08221712107025    8.52820417130948
H          -4.88187481898674    9.73488294524948    8.42385325792588
H          -1.51121006047086    8.71335744776418   12.25300598118133
H          -1.36088196139799    9.31517156999480   10.58757669508959
H          -2.34808690835657    6.54249424223629   11.45085231849453
H          -0.81301947368746    6.90380401072007   10.65547522964135
H          -2.33270262968731    7.10249134676913    9.77569610382040
H          -8.65922758605975   11.77074335236257   11.06443291951734
H          -8.67554560988548   11.63572997158866   12.83120106008743
H          -9.68085686038314    9.55288638503368   10.81594861924469
H         -10.69531022321221   10.55841641575127   11.85206063380305
H          -9.67790536897934    9.29527716982434   12.56273895929226
H          -5.72528502812115   10.30278500297777   14.82645558223896
H          -8.77518306500690   10.22413510385280   14.47629946673561
H          -7.81464027102475   10.40009918004200   16.01873814434374
