116
 SCF done       -201.448239290016          0.000612901902
C          -3.90953997220276    3.57365285540768    7.74093394965948
N          -3.62682006699311    4.87125390501321    7.45112649691943
C          -3.47345756238772    5.93701795578160    8.40961628112563
C          -2.11392567666356    5.87852745392683    9.10107079297518
C          -3.43140355085899    5.05802069022144    6.06666620095613
O          -3.15966304388577    6.13727890523033    5.56895583633601
C          -3.63397587631403    3.74749690045031    5.50283449125633
C          -3.92620583437526    2.85236762455515    6.57925443225286
C          -4.13143424283868    1.53064959178796    6.01997345049833
O          -4.38972088344453    0.46165022432873    6.52298856899576
N          -3.94727029724536    1.71542390389250    4.63433612520516
C          -4.12211482968342    0.62036842975756    3.71108386941512
C          -5.49287112237148    0.65365803641903    3.03889566281346
C          -3.65870409998536    3.02410903371945    4.31428276111587
C          -3.43464334000956    3.47290602435833    2.98993245583072
C          -3.13202927700675    4.77351164585629    2.71895810871181
C          -2.89530371548265    5.36791876012851    1.46260737489219
S          -2.19474715579358    6.95507824353324    1.48630504566829
C          -2.15740524507630    7.08503904587335   -0.23734803695109
C          -2.64540105353142    5.90196177756832   -0.82549020821051
C          -3.10135518904201    4.94276700371559    0.13289629349541
C          -3.71203832480599    3.76568119669350   -0.32908316136631
C          -3.78032417972179    3.51033460622149   -1.68086554735476
C          -4.40209498968505    2.32324957923266   -2.13137353155554
N          -4.90670930350460    1.34852522915415   -2.46045460714583
C          -3.19771900402951    4.40852267029603   -2.62162144375071
C          -3.19446434415246    4.08592450382405   -3.99774501880891
N          -3.16970453179712    3.83603115342686   -5.11557048445038
C          -2.63635067144737    5.58823310832019   -2.19303393002350
C          -1.82751645129593    8.26856249976124   -0.93833444041695
N          -0.90610691846683    9.21588475204967   -0.56073939238228
C          -0.03536449484070    9.19062880585790    0.58976437405182
C          -0.61727643725050    9.98818440556846    1.75368498289424
C          -0.84407496534234   10.28427150142640   -1.48234034518851
O          -0.07637074266611   11.21761647727831   -1.37591113204227
C          -1.84447306723820    9.95498100274011   -2.46863866726926
C          -2.41821060535013    8.71220073044053   -2.12485153635132
C          -3.51441893140381    8.47034429339624   -3.03846604728240
O          -4.32532745880761    7.56855037791865   -3.11248060315741
N          -3.50673135532206    9.57959530647819   -3.90576045914164
C          -4.43535983296877    9.61707645997906   -5.00995365091942
C          -3.76100981832295    9.27644630016604   -6.33674363308834
C          -2.51529476512649   10.48124609152930   -3.57682300123237
C          -2.17135189673741   11.72254919218428   -4.14617655931849
C          -2.74599536165406   12.41256242158640   -5.17500085469284
C          -2.27102583125926   13.65126883240622   -5.63690940538534
S          -0.87031767826647   14.41940441542414   -4.95709533038474
C          -0.98440854178678   15.78467395879876   -6.01655243346837
C          -2.05746489564442   15.62965169403129   -6.91214647653887
C          -2.80268985449725   14.43318613058664   -6.68312325742859
C          -3.92765416065449   14.15483005814413   -7.47324650070629
C          -4.28277736923215   15.02415687779651   -8.48076503009595
C          -5.42812874573147   14.75762159910004   -9.26537208311992
N          -6.36045816703749   14.51485182636006   -9.88559089811697
C          -3.48296343186254   16.17079279616668   -8.76464682241696
C          -3.81883066741488   17.00908794621211   -9.85254648948217
N          -4.06810044121385   17.69739710611226  -10.73382501409078
C          -2.37649574045502   16.45720691185437   -8.00025482159625
C          -0.18211808819311   16.94671096516377   -5.89254176254215
N           1.12851529159812   16.98936825068657   -5.47591546394173
C           1.99880931675763   15.86654030659794   -5.22279025683566
C           2.31901931060999   15.09013064267959   -6.49651541094470
C           1.62893799285144   18.30712288667033   -5.46001112557912
O           2.77384518324161   18.57722921937148   -5.15942473297173
C           0.50419705883425   19.12394947983079   -5.85014754142550
C          -0.59053656759607   18.25664756444463   -6.12214476195496
C          -1.75311703946602   19.07690197605873   -6.38114197336897
O          -2.91578794889295   18.80164867605098   -6.60315587094602
N          -1.26882403466972   20.39616071764787   -6.29537333608828
C          -2.13190524088773   21.51730269097322   -6.57971020474067
C          -1.92804310898966   22.04254668069699   -7.99865378705310
C           0.06684418564222   20.43593902146694   -5.97977501264863
C           0.80371681086084   21.65503400867462   -5.81202699975925
C           2.10598920345728   21.68006952775134   -5.51867404816085
H          -4.08732638810109    3.25752098279126    8.75199170007376
H          -4.27951820446355    5.87360479987208    9.14622252720025
H          -3.56777239742554    6.87292527672612    7.85236720573453
H          -1.99482301543390    4.93845077505929    9.63528579867628
H          -2.02467317159574    6.69707628709464    9.80959384603076
H          -1.31745362344186    5.96497695548511    8.36604308043211
H          -4.03098780831346   -0.29243941279620    4.30649071714282
H          -3.32007926690348    0.63394521273184    2.96723507980861
H          -6.27452919785343    0.56475614218148    3.78911861133927
H          -5.58284288760720   -0.17551550621703    2.34271632873578
H          -5.64304755990875    1.58453203092993    2.49589866952734
H          -3.48122500454663    2.73620592574912    2.20493724822212
H          -3.02744225797495    5.44608475806223    3.56246809522695
H          -4.15217399652384    3.06048890559255    0.35596356093221
H          -2.17466955603351    6.25481899716999   -2.90174430370039
H           0.90763745881609    9.64980637665106    0.27782501366945
H           0.15001083705025    8.15377428261766    0.87927888909386
H          -0.74108652779787   11.02689195828266    1.45838699075417
H           0.05841969524876    9.94393611910409    2.60267380743441
H          -1.58334524284535    9.59080541293447    2.05583615340237
H          -4.92963316750303   10.59151056748012   -5.04417635960580
H          -5.19067095326728    8.85804576961054   -4.78376948849174
H          -2.93440611084602    9.95212095101979   -6.54651043392342
H          -4.48427182789611    9.34227356906364   -7.14495231140239
H          -3.37478395179565    8.26066309695359   -6.30336539725975
H          -1.31497683032011   12.17357827972440   -3.65701587353128
H          -3.61127808678367   12.02703031105146   -5.68939699462200
H          -4.51956316945865   13.26847539014951   -7.30255339155481
H          -1.75023279272759   17.29660910139923   -8.25068481853976
H           1.55253268070670   15.20984143728783   -4.47055113091367
H           2.91630326250336   16.29686746087814   -4.81094201844257
H           1.41743462738908   14.67098795189593   -6.93836939582043
H           3.00151758115492   14.27728602170132   -6.26638246101580
H           2.79024537256427   15.74520482312231   -7.22543283348161
H          -1.96404481518213   22.30658019166198   -5.84202188091193
H          -3.15452328391042   21.14499849853062   -6.47052104411082
H          -0.90044961187356   22.36579422666370   -8.15134353986263
H          -2.59099444134105   22.88432962427469   -8.17746758569506
H          -2.15783546935771   21.26266998719009   -8.72069515372991
H           0.25431663472387   22.57794638814938   -5.93546690028610
H           2.67446568692662   20.77380092192599   -5.39254046148786
H           2.63077046943710   22.61196570516610   -5.39812395659667
