143
 SCF done       -243.786067737647          0.000504442836
C           0.54831282123070   -0.26357999301332   -0.39112155891501
N          -0.33799073065132    0.56032356154237   -1.00510634412109
C          -0.91891208864880    0.36242495375167   -2.31039152510717
C          -2.07495526346487   -0.63298572804686   -2.26512632714222
C          -0.68133074355118    1.65216491512809   -0.17810804905224
O          -1.45792052332179    2.52771351676046   -0.51400071158919
C           0.08620699541601    1.43809754421021    1.02527579574512
C           0.83764360286440    0.23665534001108    0.85050762489896
C           1.60986972408272    0.01299991351673    2.05946637091028
O           2.37960867104003   -0.86025047926258    2.38319828768136
N           1.26058189828704    1.09848054766329    2.89192774186158
C           1.88221404815024    1.27346036405993    4.18426516902018
C           2.93649776650217    2.37695263752611    4.17192059538059
C           0.36555418988392    1.94724278084482    2.29200420773412
C          -0.15780992627705    3.10818787605651    2.92298712061839
C          -1.01234641746476    3.94080896440571    2.27585914846933
C          -1.54274366217480    5.17905875967481    2.73596099627128
C          -0.91317460554527    6.22758629711799    3.39375078000607
N           0.38502630092434    6.30603379626550    3.92455359996456
O           1.00139158945656    5.27684833856912    4.15924211885020
O           0.83169360893572    7.42147352493392    4.13158333826680
C          -1.72893801314154    7.41514194071882    3.28660295988025
C          -2.87267613512668    7.10627840088820    2.63853864335221
C          -2.87320333347934    5.69328648926908    2.34131169438428
C          -3.92873376352342    4.91714364395830    1.92534423042190
C          -3.88181814645249    3.51395441008125    1.59696825987960
C          -4.96234162003631    3.20198877955732    0.84507849982424
C          -5.80223574160277    4.36785749018695    0.73205231954741
N          -7.03238752216808    4.33626501837340    0.05640867963709
O          -7.72543843565445    5.34370399408620    0.03636845560169
O          -7.34281425112942    3.28994386230065   -0.48777803672573
C          -5.25809253325117    5.40333415977112    1.47831991904673
C          -5.93041944062588    6.61480759536438    1.78890434746185
C          -5.85020134368349    7.26570129892230    2.97574277942426
C          -6.57525218893905    8.45780322515552    3.32304745416490
C          -6.21958624827072    9.13591876024309    4.50436565012411
C          -6.86422539066672   10.29794046075910    4.84347819793705
C          -7.90077496035698   10.79804953097625    4.03264766076561
C          -8.27923848372018   10.12531097941357    2.87548804437799
C          -7.61525862107219    8.97046793216099    2.52785372568857
C          -8.38378120011780   12.02545264306518    4.61141699604054
C          -7.64570594470139   12.29762094160625    5.78168710099572
C          -6.66076210719526   11.18293607834421    6.05534840435560
C          -5.21698194965097   11.69880685602511    6.15707302371774
C          -4.76677011782539   12.42350136525383    4.89351144899600
C          -7.05952250858356   10.34940670790595    7.29669878368021
C          -7.12324387570109   11.10920452616302    8.61470041640834
C          -7.85528805626679   13.46778245420603    6.46679180675628
C          -8.83156147603321   14.38166086404555    6.02083419779874
C          -9.58922800465001   14.06565888069479    4.87789330424988
C          -9.36701657505478   12.90593255519904    4.17204476539758
C          -8.98311631179842   15.61752163879583    6.73328306798796
C          -9.82193518047188   16.62848911113971    6.38474293789788
C          -9.94137118110906   17.88195792331309    7.02814875274348
C         -11.06615277962119   18.70627295130047    7.00651439172935
N         -12.26180611065867   18.53162034257643    6.29704012657002
O         -13.12976859490968   19.37645793407548    6.44693873639594
O         -12.38252116204201   17.55872577111249    5.56429387663039
C         -10.85565691142260   19.82015522998693    7.88628066824711
C          -9.63913031479284   19.68889507602354    8.47718652757487
C          -8.98469762917568   18.52787333433223    7.94497517514056
C          -7.64594490079496   18.21931366079045    8.10399758954308
C          -6.78433544673404   17.64130769430249    7.11505841013177
C          -5.49334680904910   17.75744420387351    7.53083962511221
C          -5.48032290233363   18.34684064094592    8.83494093824381
N          -4.30986494914150   18.49202592968512    9.59819721992170
O          -4.41464503507095   18.77307744434673   10.78108879857157
O          -3.24663053582788   18.30871400226460    9.02830206335149
C          -6.78569938553288   18.64289610831297    9.22365381041300
C          -7.20122268457743   19.15688435088853   10.46901789534662
C          -8.41178335529357   18.89688044693354   11.04740470622379
C          -8.82984981212906   19.49914488208993   12.25082958134334
N          -9.95605412685557   19.12935880378185   12.94935925173095
C         -10.91081888368057   18.11698800560132   12.56581765115058
C         -11.88589296339236   18.62842805122087   11.50757446691037
C         -10.13344467938536   19.89347722312973   14.11459465487847
O         -11.05524357837426   19.73345501556495   14.88720944151688
C          -9.01484323220711   20.81580918445817   14.11051026177973
C          -8.24080012646523   20.55274561908248   12.95643683438762
C          -7.15401597312842   21.50586672787408   12.92054001323442
O          -6.26745038193844   21.70736413298433   12.12024701246974
N          -7.32808583717508   22.27022327871082   14.09769328702578
C          -6.44059585522982   23.36771617164971   14.39920388207700
C          -7.04457709371375   24.71128406082529   13.99748572570035
C          -8.43141703822027   21.87768233802427   14.80323232789160
C          -8.84429941259929   22.48541133563106   16.03370436757343
C          -9.93989807733029   22.10602276070589   16.69757227833739
H           0.91846518024336   -1.14524876549757   -0.88082873281220
H          -0.14164032308410    0.01516223573163   -2.99649978988202
H          -1.28280708078850    1.33844170911301   -2.64216248368899
H          -1.73566922566387   -1.60068659132077   -1.90216016957420
H          -2.49070587048690   -0.75909194527008   -3.26058811789879
H          -2.85790892821556   -0.26719040481257   -1.60561725101962
H           2.35265695194087    0.31346106970007    4.41587644553100
H           1.11539202045236    1.48076723001804    4.93581609832747
H           3.67894268420226    2.17395116467304    3.40386769862576
H           3.43646913429131    2.40854880182760    5.13574453698555
H           2.48987591925069    3.34987034761179    3.98395258177101
H           0.12961881449147    3.29783276707923    3.94375962141861
H          -1.31609125990791    3.68041461290912    1.26793680720732
H          -1.41802355504665    8.37283665642023    3.65840777194820
H          -3.65375366268034    7.79122480454608    2.37910924284533
H          -3.10380340605312    2.83735195995920    1.88226816270928
H          -5.20726607651111    2.25480529851924    0.40420210930981
H          -6.64721593541719    6.94149160831493    1.04846633063084
H          -5.20941253015593    6.86481595915382    3.75195499201942
H          -5.42142539681262    8.74278087578274    5.11791075010518
H          -9.08170708145921   10.50092942327342    2.25945630636046
H          -7.91811625469128    8.43812030559654    1.64042208527027
H          -4.55375114246097   10.85262801259315    6.34683224072687
H          -5.13984413929411   12.38135728029099    7.00390160170260
H          -4.80703252979957   11.76100826195500    4.03157295176793
H          -3.74439555140595   12.77461683552862    5.00926780179532
H          -5.40417620367338   13.28245871782814    4.69463040970647
H          -6.33996006031903    9.53321029015350    7.39045893028952
H          -8.03892408460767    9.90429781486996    7.10176800403547
H          -6.17516617542518   11.58775884165942    8.84469006954305
H          -7.35080142041897   10.41214560828033    9.41820213423981
H          -7.90612200626504   11.86235994351415    8.59181894727954
H          -7.26149092028369   13.72199608973226    7.33236167464483
H         -10.35748316947055   14.74350249290104    4.54216919306376
H          -9.94245281138962   12.68622408412282    3.28590378613115
H          -8.36724450707365   15.72595594112186    7.61761803828983
H         -10.53130299924502   16.47502513232793    5.58299329360245
H         -11.56766805664705   20.61225810422138    8.02053573387671
H          -9.17285096300742   20.40008960464147    9.13033761641925
H          -7.11178782531098   17.29146748133899    6.15549051963226
H          -4.60635484860788   17.46374765218958    7.00221284201436
H          -6.47147143053896   19.74674126583088   11.01277922929503
H          -9.07442639275333   18.17694592443637   10.58781269122485
H         -11.46099784207819   17.85889543051398   13.47497955377962
H         -10.37846055282424   17.22972955881960   12.21225691580161
H         -12.44167520489904   19.47795568888173   11.89623277996803
H         -12.59117064500097   17.84401212360236   11.24788280168023
H         -11.36287369432207   18.94106743861606   10.60600777703524
H          -5.53118796921600   23.18770520771773   13.81900590223053
H          -6.18844466310850   23.35459111822199   15.46271139470616
H          -7.24683106960306   24.72226562709762   12.92931704577195
H          -6.34534721732793   25.51072236741304   14.22575990183583
H          -7.97566573647491   24.89682000547939   14.52877330284608
H          -8.22038323819010   23.27991015069112   16.41900356642379
H         -10.57831256004559   21.31825566493067   16.33312623175298
H         -10.22089649718016   22.57960445301563   17.62231165316555
