96
 SCF done       -167.976772232429          0.000445922352
C           1.66697039846848   -0.72249449167815   -0.28961188470621
N           2.23082528377035    0.51290552781791   -0.20950470524168
C           3.64164176383072    0.79166730528892   -0.11515557802924
C           4.18670709937745    0.47147752185249    1.27407962661158
C           1.24877786709894    1.52552183675386   -0.16401161741034
O           1.51629349233718    2.71196563353208   -0.09009028732102
C           0.00184702186556    0.80792248269868   -0.23441834957817
C           0.30773784833516   -0.58992666044518   -0.30971175023850
C          -0.94245274288239   -1.31665960867713   -0.38938022877854
O          -1.20039804356510   -2.49729450678609   -0.45910740459834
N          -1.92587215482350   -0.30702558791970   -0.35744209663835
C          -3.32626837045154   -0.63482099842698   -0.46242783074922
C          -3.85347741567217   -0.43498222592531   -1.88167440095047
C          -1.37783714648107    0.95503684115762   -0.27277796865730
C          -2.15305166415148    2.14395751789163   -0.23162190967505
C          -1.58662654348460    3.37226659736502   -0.12451913569820
C          -2.30588943259895    4.59514885267893   -0.09229553286579
S          -1.43880290421200    6.09033682948716    0.13599761089224
C          -2.89309845104792    7.03311336361318    0.04654089352235
C          -3.99775986740671    6.19687605993221   -0.15348430233024
C          -3.65751681552117    4.83676518479426   -0.22636292974742
C          -5.33278431114398    6.61733860910789   -0.26489520058703
N          -6.44102472656780    6.90169093279398   -0.36204513222854
C          -2.80848083965908    8.44127002961094    0.17708522858886
C          -3.84319270872563    9.30901311171103    0.03846270365200
C          -3.73951633489315   10.71459724823421    0.18009022624576
S          -5.16360761115900   11.69390991234780   -0.15745006654247
C          -2.65778891266605   11.49502920269979    0.56120267824652
C          -2.96833747810868   12.85056282456286    0.58213626956434
C          -2.30120642591441   14.10652010401403    0.89030417631258
S          -0.75594078268119   14.32012794929027    1.37476672493392
C          -4.29888796398918   13.11733497362509    0.20637454209515
C          -4.50373342737156   14.51877704836838    0.25567431014386
S          -5.74546521436863   15.65193325502744   -0.04537523587584
C          -3.30935806837519   15.13182907036786    0.67172922286397
C          -3.40935752457411   16.51945393715514    0.75288237569280
C          -4.66546826366058   16.97085380814913    0.39401242909205
C          -5.12728418397611   18.31095565360779    0.34439594188570
S          -4.12087461665286   19.62645816839865    0.88796189052330
C          -5.34838992150342   20.80303230535928    0.49560350807185
C          -6.47226306831988   20.16559834828086   -0.03205932599518
C          -6.34356278847678   18.76961352235113   -0.10812055498377
C          -7.63543979090461   20.84008677003254   -0.44561431741488
N          -8.60648384047987   21.34089597817378   -0.79260249425819
C          -5.17598138449886   22.18788720397051    0.70485595471571
C          -4.07889164733289   22.72435254023872    1.30414158662212
C          -3.91004282769696   24.11319140377325    1.51030769363349
N          -2.82406415023199   24.66599314676261    2.15542397463028
C          -1.67973108429584   23.95860188114100    2.67497619250730
C          -0.69796114125432   23.57201544458868    1.57116587655192
C          -2.90785352096586   26.06655116060836    2.22831092716351
O          -2.05918935533209   26.75912828113097    2.75508623373280
C          -4.15750545134239   26.38459358726227    1.57430733724827
C          -4.74654441821696   25.16312312687874    1.14634400702694
C          -5.99328496565312   25.47654864165881    0.49241882510512
O          -6.84143104617977   24.77940161288766   -0.02949397306869
N          -6.08347047635187   26.87980012024460    0.57284291590716
C          -7.18639848545726   27.58452107213426   -0.03351514747116
C          -6.80383615381275   28.17957485402523   -1.38672876714007
C          -4.99705875648404   27.42857768227331    1.20975400666324
C          -4.84269991421692   28.83657405847859    1.43723453536291
C          -3.77438071288856   29.36039174607917    2.04243006909435
H           2.27541605629011   -1.60658011794593   -0.33597374177057
H           3.76017158477810    1.85786993615050   -0.32647512322565
H           4.17412326674274    0.21303406638741   -0.87612321156908
H           3.66898642087561    1.06431980826078    2.02413173906960
H           5.24711750510358    0.70333061258936    1.31735762631032
H           4.04921487048099   -0.58208053502639    1.50746812126955
H          -3.89842759436991   -0.03977311615142    0.25520387951794
H          -3.40949662410759   -1.69049864147532   -0.18853423554122
H          -3.73710928281888    0.59852756655712   -2.20108655868654
H          -4.90639984941559   -0.69966459706315   -1.92505078970208
H          -3.30590033029529   -1.07252863653691   -2.57120813144852
H          -3.22706447044873    2.04545467663198   -0.28423747337968
H          -0.50922309694785    3.45004605438160   -0.05930724026895
H          -4.39178545351345    4.06604271806211   -0.37927420659693
H          -1.81963845671484    8.82231529671490    0.39139686509343
H          -4.82542052075073    8.93126482655460   -0.20683163373001
H          -1.69494397379878   11.09396821460891    0.81778758411603
H          -2.61314331634895   17.17754976306695    1.05110341822989
H          -7.11355541121978   18.12069640707933   -0.48738674679043
H          -5.97936247257847   22.83022061485688    0.36449637334369
H          -3.29700016923544   22.06127705127163    1.65084800541083
H          -2.01425743002510   23.07499350866757    3.22619830286580
H          -1.19259176827148   24.64556804523437    3.37290455725698
H          -1.17181201567230   22.92714581272876    0.83432512717727
H           0.15147152192816   23.04820768593373    2.00068881706812
H          -0.33770514346759   24.46558619629924    1.06759157466645
H          -7.54689795597340   28.36106476528813    0.64688612471685
H          -7.97741625521007   26.84173692976109   -0.17153586110437
H          -5.98594252950928   28.88969305889774   -1.28452043943129
H          -7.65977627528199   28.68954618653635   -1.82000963847824
H          -6.49213451049789   27.38783055470691   -2.06350095662007
H          -5.64523933345792   29.47648891155373    1.09716899943717
H          -2.96374317042666   28.74229697095738    2.39039863251909
H          -3.69031874203088   30.42127160177737    2.20382787455360
