90
 SCF done       -160.903530550564          0.000644349252
C          -9.32055213997127    0.87238614469206    4.16690159716592
N          -9.81036944229549    2.13953791536127    4.24719097980968
C         -11.04705326995886    2.52754348275479    4.87638731360893
C         -10.93084124140617    2.52457723441959    6.39830550919697
C          -8.92018344538112    3.07400204010447    3.67492714805460
O          -9.14369332125487    4.27149428509480    3.63890511437792
C          -7.82042818125880    2.26984230536632    3.21030318637328
C          -8.10763817234907    0.90466612107475    3.54090598875030
C          -7.01562692245932    0.08829271949921    3.05390405001671
O          -6.80178445443747   -1.10316718875909    3.09536799159809
N          -6.14503669546495    1.01278703671993    2.44323369317141
C          -4.88730137739523    0.58716605440637    1.88178612493493
C          -3.71489691187347    0.90213487861722    2.80810864795054
C          -6.61179695662585    2.30802174202704    2.52987255849576
C          -5.94261801632069    3.41925078864920    1.95342641763581
C          -6.39109918935069    4.69141206104494    2.10007961375421
C          -5.80387223959611    5.83023564626842    1.49016419282829
S          -6.43757586150546    7.41782902017343    1.84439088463183
C          -5.33879072147099    8.18084934730955    0.74162062068587
C          -4.51084191976609    7.22471707105857    0.14422120972882
C          -4.77669308946382    5.91434711097481    0.57443469789656
C          -3.48138359201242    7.49868181811061   -0.77014276991932
N          -2.61517595137112    7.66491652169478   -1.50563280287243
C          -5.40193518435426    9.58410587977500    0.54706614853062
C          -4.81442758201875   10.25436934140728   -0.47353683039510
C          -4.91335369579464   11.64904291100802   -0.68375255967321
S          -5.63553179754461   12.75224872191826    0.47665686262206
C          -5.38692099897851   14.11930728494834   -0.55529389591376
C          -4.79786574795960   13.75633336314496   -1.71726873174339
C          -4.51428687923542   12.36180290358450   -1.79684915850338
C          -3.93701698558416   12.07937985436603   -3.07573655383995
C          -3.85324406620731   13.23340262805347   -3.77978826861569
C          -4.35618187282066   14.42026433085025   -2.98181680324885
N          -3.50839330077029   13.31335191745174   -5.12189101377208
C          -2.92336961072730   14.36521900244495   -5.79451905238802
C          -2.37533494470666   15.58077396737978   -5.15103116084903
C          -2.89115087177053   14.05772666854273   -7.12746621664405
C          -3.47452896426695   12.75719178114925   -7.31803187590822
C          -3.88098037876054   12.25789870316939   -6.03209375978736
O          -4.43333232552256   11.23995310220753   -5.69429963038162
C          -3.45106492479249   12.44741712902288   -8.64786274427363
C          -3.93738195540453   11.22633416557069   -9.32223745218782
N          -2.87929820074802   13.51247311223674   -9.31701760898791
C          -2.49030849692616   14.56568682431278   -8.41263694103762
O          -1.94883518403300   15.58290424661738   -8.76696085970543
C          -2.71402090323403   13.61245236148303  -10.68711162369380
O          -3.03110453673868   14.80618818015753  -11.26165729583678
C          -2.78908279498456   14.65789079836402  -12.55981247347314
C          -2.32949317547801   13.37981235015448  -12.85124085571018
C          -2.27583660536776   12.69758372608349  -11.61954254852227
C          -2.08992633626404   13.25857100156679  -14.31264879100599
O          -1.70306782687951   12.30943357699116  -14.94410919236955
C          -2.46258771782787   14.61622817765464  -14.81982398462886
C          -2.87151591582992   15.42887407283436  -13.76127134906505
S          -3.31490565709405   16.98914256463662  -14.27816921512244
C          -2.95524178619172   16.56779811677259  -15.94129839416770
C          -2.51126408182666   15.26538416782794  -16.05369181862789
C          -3.14948482273808   17.56287745877873  -16.95927464687373
C          -2.92307546121387   17.38728095242724  -18.26001253973749
H          -9.87794882337428    0.03845135894336    4.55130061704484
H         -11.84227033150444    1.84848407439266    4.55376021470074
H         -11.27062455223798    3.53738622753081    4.52151980453499
H         -10.68066669832870    1.53038793531069    6.76221903337368
H         -11.87364810699264    2.83233614693611    6.84167613915755
H         -10.15405402618389    3.21670026536574    6.71396472729994
H          -4.74395724184806    1.05028443578376    0.90094007420490
H          -4.96970416428936   -0.49552264540677    1.74943040048802
H          -3.63967422913088    1.97184155320194    2.99228048455791
H          -2.78707293985024    0.55673405856598    2.36045785057748
H          -3.85095042750336    0.39640874780141    3.76085025994782
H          -5.05584990637612    3.22206416164399    1.36936578143071
H          -7.26866364620094    4.87210104144672    2.70656585893223
H          -4.23120584635321    5.06397641284429    0.20588994966600
H          -6.01130384717957   10.13350296972345    1.25370601352650
H          -4.25135327132616    9.71627727210519   -1.22315941038852
H          -5.70813302406280   15.08607022421307   -0.22138735573369
H          -3.65066801422892   11.10458198221795   -3.41859571587911
H          -5.17622970800708   14.92516525504398   -3.49683148974464
H          -3.57626965641503   15.15551850004954   -2.78017044079922
H          -1.76424888757501   15.32102564412322   -4.28778248626429
H          -3.17297124431593   16.24901471840315   -4.82760997219795
H          -1.76559251836729   16.10897199436610   -5.88005669897658
H          -4.62468619091165   10.70715848446650   -8.65916850063059
H          -3.10558467127568   10.55577228489528   -9.53890986025853
H          -4.43043061607327   11.46802258878154  -10.26236832527144
H          -1.94880068770514   11.69620698797483  -11.43599818068374
H          -2.23633078271926   14.80864372319749  -16.98576857540487
H          -3.51021882061872   18.51807265157889  -16.60051823127055
H          -2.56528343674823   16.45482723981096  -18.65974801490838
H          -3.09271897845325   18.17993420324422  -18.96650308327697
