128
 SCF done       -248.568825714138          0.000752849522
C          -1.46841079969156   -0.83191593737338    3.35858607425782
N          -2.42584577430893   -0.19460131418471    4.07431194517452
C          -3.46435001658500   -0.82359894906056    4.85301514405075
C          -2.93246122533375   -1.31298499825936    6.19738440307880
C          -2.24979514135355    1.20778321780623    4.03357956561242
O          -2.99551267267096    1.99021850048538    4.59377653802467
C          -1.07603845060760    1.39112964587812    3.21322622252038
C          -0.62543985712271    0.10129223596669    2.81000639102282
C           0.56144980989688    0.27578440564169    1.98948420306833
O           1.28566072443114   -0.51318748176687    1.43179316494992
N           0.75407504629808    1.67342398357140    1.96452915789912
C           1.83426672559677    2.26367026391500    1.20718730052054
C           1.34612875397770    2.93235451229687   -0.07476492647847
C          -0.20354640025553    2.34520933583086    2.67987260405282
C          -0.21488086066148    3.75136930156065    2.83766754556074
C          -1.19095605282877    4.37630632413047    3.55457499240345
C          -1.32454395356235    5.75983417227164    3.82288852860736
C          -0.98306658467667    6.90987394471732    3.10834397912640
N          -0.32217146810125    7.05933484595361    1.87841353389437
O          -0.33836399137147    8.16878416115079    1.37217091841271
O           0.22781985232298    6.09518000339902    1.36571594222987
C          -1.54576593516307    8.05724223508805    3.76788331681661
C          -2.24753000994100    7.64875833368110    4.85557868493096
C          -2.13218024046855    6.22431149099213    4.96616661736043
C          -2.52784105168008    5.44061228168963    6.03419134930550
C          -1.86052910897889    4.26566599019304    6.50102733521654
C          -2.35535180075953    3.93118463782457    7.72527188467064
C          -3.40923414493232    4.83809263413434    8.06305780978031
N          -4.16079004865294    4.71202969774294    9.24315118063913
O          -3.85001761585285    3.81459109833678   10.00792457222549
O          -5.07031982045900    5.50049594050501    9.45193767564597
C          -3.56502002014959    5.76803397820178    7.03428551638952
C          -4.59162810303662    6.72631308969091    6.92882610791637
C          -5.06476570508732    7.27830129361558    5.77411896030557
C          -6.05904691275942    8.28037918967568    5.74691871872739
C          -6.61573672513107    8.85074167350967    4.61742382546433
C          -7.55544598273093    9.85389280606602    4.89542772675995
C          -7.71621248548455   10.04549394408262    6.29429411357724
S          -6.69754002756938    8.98664747708164    7.21661583819224
C          -8.57080727084460   10.99243327705208    6.81777182262050
S          -8.71354278526471   11.18329047334182    8.56942431656112
C          -8.14188638968800   12.89839002806288    8.79772762938483
C          -9.32093740917010   11.76049309670017    5.90836018348938
C          -9.14342792041553   11.60206018899457    4.50325307765222
C          -8.28542384738241   10.65045830796151    3.97401514954361
S          -7.94730284396086   10.32034971377697    2.28473725187959
C          -9.35190471539137   10.95757227739818    1.33332166802689
S         -10.14363288393180   12.75352080267810    3.64678415600048
C         -10.82201937847260   13.36812522258769    5.14227233220529
C         -10.28712931414283   12.73075003592544    6.22927511736454
C         -11.76139975281320   14.44088160949039    5.11145931397014
C         -11.77918427602153   15.59538088591390    5.88261059332257
N         -10.90693311063061   15.99087010455992    6.90749479773586
O         -10.94336002726537   17.15774384278539    7.25254394028588
O         -10.14459491221975   15.16420358571691    7.39407142847119
C         -12.78968990489525   16.48883669788564    5.37003693655912
C         -13.37215447561224   15.92033304577985    4.28653813901241
C         -12.80021268899977   14.61788979364794    4.08800770707770
C         -13.28042400076654   13.64301819291115    3.23725788534402
C         -13.21187583200403   12.22206488200064    3.42885650773343
C         -14.01256181703594   11.62366787428903    2.51352909403013
C         -14.59901937630328   12.63527399721830    1.66981779595910
N         -15.37158500079241   12.27354107129560    0.55144767170364
O         -15.34615599105901   11.09967600847526    0.22275533045667
O         -16.01795179402683   13.12868252024751   -0.03225449633765
C         -14.15942566149185   13.88635808112711    2.08228199510054
C         -14.29630967958570   15.17645451752446    1.49582340595005
C         -15.41254266073110   15.68216515045732    0.91376499769984
C         -15.47394677371441   16.99196904830067    0.37515826139823
C         -16.61529420385170   17.69880622186294    0.14834636781490
C         -16.63753858200429   18.86246669401853   -0.78150100941320
O         -15.68184486840544   19.45431831472984   -1.22346487921073
C         -18.06853295480285   19.08995125909280   -1.07304486392544
C         -18.63549595784295   19.97146220670925   -1.94785382559446
C         -20.04260821613927   20.00673618903473   -2.07358615917516
C         -20.83813190675882   19.11788624382041   -1.29294935158432
C         -22.24061775733989   19.15566118888321   -1.42660728300239
C         -22.82647547133002   20.03717024092904   -2.29125712956662
C         -22.03910674484939   20.91720388710285   -3.06136141206732
C         -20.67636330043677   20.90305186625052   -2.95612957359754
F         -22.64032492799852   21.77045464625900   -3.90011077503627
F         -24.15878384129002   20.07403639690037   -2.41507456613649
C         -20.22421166179511   18.21845202401000   -0.39167489131640
C         -18.85979993734050   18.21033253248914   -0.27789114018381
C         -17.96944270132707   17.44405478966637    0.58809824228538
C         -18.33033618680764   16.80029461005074    1.74351413660500
C         -17.40129060984578   16.36757433696110    2.71226036735252
N         -16.68181816998712   16.07016190823916    3.55621472055708
C         -19.66759839957851   16.62457775327148    2.15661592387876
N         -20.73971726130372   16.44742074674048    2.52535581065113
H          -1.45133426033794   -1.90328111248617    3.28059400131857
H          -3.88404213000943   -1.65553214495287    4.28114275918064
H          -4.23802221378949   -0.06797386280541    5.01221494066617
H          -2.14066685535217   -2.04512093226181    6.05462813263475
H          -3.73577483876422   -1.77311255825311    6.76525429344558
H          -2.53732313054157   -0.47747663477568    6.76996465891542
H           2.50648123096566    1.43656250499741    0.96150742481584
H           2.37157250689045    2.98102558548352    1.83370137158151
H           0.76931072229953    2.22674002622682   -0.66793896488567
H           2.20239164759957    3.25646585188650   -0.65918049551724
H           0.73004445546378    3.80138944537639    0.14116720251733
H           0.58710492159625    4.31661534426272    2.39321303583323
H          -1.95453123271370    3.75810879816662    4.01021907074118
H          -1.40076455539817    9.06274456449286    3.42110473003565
H          -2.71805804548159    8.28145829284459    5.58208450093424
H          -1.01711504751663    3.81002015157744    6.02148652557821
H          -2.03338780395464    3.13159602901419    8.36518861244666
H          -5.09132479257655    6.98053876388453    7.85755815314290
H          -4.70170741538341    6.93911926055311    4.81328757576999
H          -6.34193585724328    8.55534969406844    3.62039021214975
H          -8.19245872700292   13.07653663428076    9.86699574005779
H          -8.76972887431237   13.60918836538687    8.27234400805459
H          -7.11252278554363   12.96410701781450    8.45865479359354
H          -9.25021522456143   10.50418375319692    0.35134009445044
H          -9.30096123683191   12.03814956770915    1.24589950954302
H         -10.28376394007730   10.64275198610690    1.79076600840143
H         -10.61998882694555   12.91476954060564    7.23288040702677
H         -13.01375361557913   17.43878226705755    5.81605109745408
H         -14.22008643120199   16.29914489630505    3.75090046976877
H         -12.70905641669095   11.73635513033710    4.24217058080507
H         -14.21950244707738   10.57603413389356    2.40328873586631
H         -13.44169636720665   15.83167615475689    1.61985197953387
H         -16.30711087438353   15.07954116961764    0.86382827033036
H         -14.54942762341707   17.45689158860378    0.04903796015765
H         -18.01935062057534   20.63492328113635   -2.53543040630685
H         -22.85786707140723   18.49122879531353   -0.84232292853785
H         -20.08846612865761   21.58293864250234   -3.55265058186449
H         -20.84779589484332   17.55143363617119    0.18214932777735
