91
 SCF done       -158.191773559577          0.000582418957
C          -2.95334102416989   -1.57576400124212    2.77825036943779
N          -3.97991173003663   -1.38097689178276    1.91232804404130
C          -5.13728502737785   -2.22782900929863    1.76877058943511
C          -6.11958150303672   -2.03319809181824    2.92088396773364
C          -3.82918915077415   -0.16614999607115    1.19303078113707
O          -4.62452288098594    0.21906941539940    0.36466543635340
C          -2.58543369110933    0.37250695859490    1.69334041205398
C          -2.07570219597757   -0.53170721800250    2.67635663139468
C          -0.83542795613275    0.02055959062677    3.17464445828589
O          -0.03635508820046   -0.37460852941491    3.99338429044987
N          -0.68877990897794    1.24256435242546    2.47524144296314
C           0.51997803549401    2.01070234857194    2.65381857388033
C           1.42407008482114    1.95880008558431    1.42545847751012
C          -1.72542535562747    1.45397500278884    1.58939517865999
C          -1.96460098528480    2.55686056809689    0.71849102281737
C          -1.38425323351447    3.77762858271509    0.71071615612442
C          -1.76385454351249    4.78403668218471   -0.22277781261582
S          -1.14040856681115    6.43072941446517   -0.10553699712405
C          -2.11841759945679    6.75609316810208   -1.53290302960073
N          -2.76090236998244    5.70159801650639   -1.94467357168340
N          -2.57187625329626    4.62955059960137   -1.23058716092010
C          -2.20674536385798    8.02898688271980   -2.16711517602423
C          -1.63360524503671    9.14439703617917   -1.68249562773068
C          -1.75021317757046   10.47029618454308   -2.23856091844533
C          -1.95579950645803   10.76827120589825   -3.62578233819389
C          -1.99380346959925    9.95446128179622   -4.73170693506462
S          -2.36663850854043   10.82722034521918   -6.15009949875665
C          -2.45399962351538   12.30828110384426   -5.30605336093660
C          -2.18481837079429   12.15248501954331   -3.96801426149638
C          -2.07992118148489   13.10611057260677   -2.90172436801832
N          -1.83881903148458   12.69921385521291   -1.67146356450563
N          -1.69716274911997   11.44418796861367   -1.35312413263653
C          -2.19189569405362   14.53641107582783   -3.04381731232256
C          -1.90197544821193   15.26589493506733   -4.13572168334428
C          -1.99916536933634   16.68688489329297   -4.17467165522338
S          -2.63180468294226   17.66214054156411   -2.85161290015262
C          -2.29809756213459   19.04636855306127   -3.89458850844559
N          -1.79497840794081   18.69359927203093   -5.04210208281882
N          -1.63657872956605   17.41025664706236   -5.19413194705082
C          -2.57907757991945   20.37343132548422   -3.46657874137147
C          -2.22368508913961   21.45614169382497   -4.19681380729825
C          -2.40386895746775   22.83508061440261   -3.89905634714312
N          -3.15722380578915   23.43453465616754   -2.90972300439990
C          -4.10141091497865   22.83303171626539   -1.99902543138778
C          -5.32764111497436   22.28311148016930   -2.72215968435317
C          -3.03185763858850   24.83921663197998   -2.93817780054465
O          -3.61179886841214   25.57251936126994   -2.16104938304628
C          -2.11708558333998   25.10368431945000   -4.02187056921606
C          -1.76437859689419   23.85279964427092   -4.59485404238446
C          -0.83917120511611   24.09891361075227   -5.67747707579276
O          -0.26929823478667   23.36608903480240   -6.45534790265469
N          -0.70132278363584   25.50694961012945   -5.69197533396363
C           0.20566551197458   26.14965999974650   -6.61088208994731
C           1.53209366307767   26.50297755093748   -5.94168837787924
C          -1.44835904614356   26.10719548443662   -4.71024427479151
C          -1.49192455802525   27.52675719619082   -4.50412273231404
C          -2.20850018875844   28.09415369607810   -3.53162810001802
H          -2.91446076874210   -2.44848599193725    3.40418022879645
H          -4.81460106573428   -3.27167977302935    1.71417941053584
H          -5.61037332613674   -1.94703074674492    0.82401407699849
H          -5.65302568324274   -2.28401001353034    3.87110889998663
H          -6.98701232754863   -2.67127008501430    2.77843981289182
H          -6.45059250834454   -0.99829747732390    2.95789046610167
H           1.03132169991933    1.54603834274982    3.50315908860921
H           0.27685546901321    3.04090144061099    2.92723382573045
H           1.70438394693532    0.92929778499166    1.21640821761242
H           2.32764878272227    2.53298770083357    1.61129210538415
H           0.92429480551789    2.36486951704253    0.54914480619108
H          -2.75910061080469    2.37754807490668    0.00482952493744
H          -0.62834296774227    4.07126332314269    1.42101735866971
H          -2.82587681103960    8.04002306201597   -3.05170543927893
H          -1.10676007973195    9.10805940458114   -0.73725629072958
H          -1.81204027250436    8.90158759459723   -4.79679491432920
H          -2.70915492468290   13.19897152757890   -5.84175531884511
H          -2.46524956448857   15.04213218780281   -2.12593154363511
H          -1.52857915391307   14.82106375137444   -5.04566217397088
H          -3.06883283668528   20.45016404739962   -2.50952112761755
H          -1.68599845484315   21.28044685999374   -5.12020192128490
H          -4.40656575929383   23.64133298643300   -1.32658676303557
H          -3.61051434006928   22.06128398795970   -1.40038921833609
H          -5.83487659112688   23.08624337324095   -3.25120273838396
H          -6.01713686170449   21.85357822142884   -2.00051511189101
H          -5.05087368287665   21.51702555554929   -3.44262353234878
H          -0.26721818571206   27.03965519104421   -7.03530668414146
H           0.38203101949909   25.42775958719136   -7.41349777195819
H           1.37902345014694   27.18247818703387   -5.10597347307458
H           2.19442553574225   26.97544621964924   -6.66171772815105
H           2.01015911331696   25.60014034632478   -5.56984963600877
H          -0.91291604910005   28.13739093245243   -5.18296232942496
H          -2.79266252957372   27.50505310939035   -2.84453540246732
H          -2.22486041059145   29.16268572188288   -3.40289499429086
