113
 SCF done       -223.158602708285          0.000878332844
C           4.41170494252651    1.59589618376480    4.00932479790020
N           4.61317609134715    2.49071752814848    3.01785255271178
C           5.80910826210908    2.62801998624262    2.22292295410179
C           5.89414926260357    1.54526141875809    1.15088808135771
C           3.45280311843163    3.27424633536325    2.78736792694631
O           3.39624977262336    4.14547382140009    1.94550531389615
C           2.49882999906973    2.77801789093446    3.75361105469842
C           3.13195732121650    1.73986991661270    4.49088194440210
C           2.18438771990873    1.24078265865415    5.47226649254965
O           2.25683113293242    0.37085185511255    6.30593745495278
N           1.03069632021858    2.02453626578013    5.25655523810868
C          -0.14340086318657    1.85277405947348    6.07923771019477
C          -0.22188054220703    2.90322953620948    7.18417093251840
C           1.20026601291536    2.94232364562129    4.24823568829348
C           0.20199087472677    3.85118145421038    3.83576903917100
C           0.38104865918271    4.72504923446895    2.80084342333866
C          -0.58558486915858    5.65140631859414    2.35775244506122
C          -0.44018219352690    6.49565714413620    1.26736775473810
C          -1.59709985329973    7.30296341539928    1.14164811035611
C          -2.50419853149464    6.89391538115902    2.23443121412206
C          -1.89803777646499    5.90694427059040    2.94079494541979
C          -3.80460768075138    7.36033622076298    2.46805103587828
N          -4.88786563467138    7.67988124323487    2.67400044239079
C          -1.84827158788002    8.28484447652356    0.20463093825460
C          -2.92962688127567    9.20291346036339    0.18823704516887
C          -2.83624575669357    9.99344980528859   -0.94264043913639
C          -1.65420716368980    9.56319499795768   -1.68900931938313
C          -1.03443691515150    8.57805403880496   -0.99181410077099
C           0.14798696481440    7.93893564625694   -1.38268513288779
N           1.11432006979133    7.42971400614795   -1.73683691905233
C          -3.66148843455705   11.06316672183173   -1.36979379161627
C          -4.25161984062712   12.09429182083657   -0.65013487872839
N          -4.21614155826268   12.34021439526382    0.73963307830852
O          -3.65925378463813   11.53581041645236    1.46533866312143
O          -4.74118727050350   13.36604405660813    1.12985898446313
C          -4.81038980777648   13.04678450183472   -1.56756639359872
C          -4.57417367597114   12.63120888403697   -2.84533402908523
C          -3.89930622528988   11.37739790267093   -2.79716213876179
C          -3.70621840555768   10.48232475300727   -3.83545168259280
C          -3.69696469432581    9.06559878974645   -3.71665057854260
C          -3.69559123288739    8.52226475272264   -4.97285341637960
C          -3.66208553826737    9.56245069432110   -5.94278785311861
N          -3.63838792990316    9.22904529663652   -7.30981193365818
O          -3.89469229715227   10.08246346989612   -8.14754842877245
O          -3.38162867707447    8.07181415891620   -7.58993070460897
C          -3.62922891520516   10.80947582882205   -5.27770240191367
C          -3.30945224093913   12.11103840536356   -5.67331573420807
C          -3.20602889665675   12.59642188505503   -6.96386241165646
C          -2.87774678394287   13.89489915441508   -7.36011291687930
C          -2.78581714225669   15.13334254666678   -6.69478766956468
N          -2.74923171025342   15.45682025526817   -5.32567694046363
O          -2.47924677555739   14.58913740181130   -4.50723961548726
O          -2.96006696503744   16.61763695234544   -5.02724228298195
C          -2.78314651835826   16.18012210277812   -7.66250839163297
C          -2.86240959912428   15.64633504546762   -8.91772747548322
C          -2.86295726703732   14.22772893917841   -8.80666801658231
C          -2.70099607581467   13.33157645432489   -9.84683062512349
C          -1.97448816356917   12.10071304901094   -9.80358308608071
C          -1.73755458111438   11.68345867875867  -11.07975729426126
C          -2.36745666121339   12.59435024351620  -11.98760889455922
N          -2.35931631456983   12.41024902927671  -13.38609481087138
O          -3.00317894551987   13.18150005162336  -14.07757844808545
O          -1.68879557374852   11.49411474731281  -13.82180285183744
C          -2.99866070854312   13.60384660520988  -11.26588369275702
C          -3.88173553486076   14.58512882803679  -11.76561875220333
C          -4.93348318824166   15.11027658737454  -11.06527534041672
C          -5.76746769954337   16.08376721162204  -11.64560401434445
C          -6.95160269982066   16.63223858924144  -11.23415968888160
C          -7.60957292269129   17.55655888724228  -12.22150342167440
O          -7.10559778990159   17.98035055088058  -13.23343874749258
C          -8.95114168694796   17.78826011041900  -11.69072224086246
C         -10.07812305907149   18.45294663602936  -12.07169332619655
S         -11.33982372767632   18.24083747631625  -10.88101983481046
C         -10.32458212713117   17.26380797069389   -9.88613580441333
C          -9.08963926561815   17.10831592247127  -10.43782725037539
C          -7.83488549086524   16.45116407039545  -10.09816331307808
C          -7.63085674267871   15.86544629105437   -8.87268389619707
C          -8.67008499981689   15.78406606154526   -7.91704080621644
N          -9.48566563574258   15.68178681054987   -7.11679516685634
C          -6.45551838538451   15.33294460926308   -8.32233229276774
N          -5.55574440749526   14.90336857838363   -7.74953923817159
Cl        -10.32589112237749   19.37408387449652  -13.46977689969689
H           5.18700449834193    0.91936944103960    4.31888804926106
H           6.68098154888448    2.58436378351932    2.88119107725185
H           5.75999825102293    3.61375499417851    1.75312043361423
H           5.91634702056042    0.55599934962603    1.60271188156028
H           6.79761124568526    1.68132322998007    0.56382085110228
H           5.03587644575014    1.60732682027677    0.48654074019173
H          -0.05522543899354    0.85893904722359    6.52682474935410
H          -1.03745221527395    1.87588524021256    5.45018620759978
H           0.64907834552650    2.82681074071293    7.83015428476634
H          -1.11283856813690    2.73920732230967    7.78360927203081
H          -0.25757301417896    3.90877521870794    6.77056205732992
H          -0.73887323302377    3.83296300569592    4.36559157904099
H           1.32127539606497    4.72369851458964    2.26483646702340
H           0.42437751246863    6.54697033661551    0.63461361526830
H          -2.31604480077835    5.39931948980638    3.78968449320651
H          -3.69639035892812    9.25899345319986    0.93399615547960
H          -1.30822514559011   10.01647743326665   -2.59895373046129
H          -5.32442010542305   13.93600431157975   -1.25451364510612
H          -4.94029672234966   13.10418373216583   -3.73484367138510
H          -3.80667229439513    8.52142129301267   -2.79901270132363
H          -3.73189362473385    7.47941338827604   -5.22755023116573
H          -3.08503890622869   12.79012757842980   -4.86260995802129
H          -3.44982669642365   11.92319651729721   -7.77346170329184
H          -2.71901803434443   17.22058908712155   -7.40286642189578
H          -2.81770630152598   16.19165253045657   -9.84015946601709
H          -1.56753037549699   11.65838758276132   -8.91619574492746
H          -1.17999776766447   10.82125141012366  -11.39331095788401
H          -3.76329495012116   14.85122146263006  -12.80984049741693
H          -5.14869600877336   14.73409377242489  -10.07910680449942
H          -5.44915795067782   16.45469642193971  -12.61763296963741
H         -10.72029232917012   16.87296421704468   -8.97017333709306
