127
 SCF done       -249.380392375341          0.000614927219
C          -1.28591586836751    3.06687136338119   -0.53382352979240
N          -1.37322279144372    3.55184769329465    0.72666637786854
C          -0.28408345411208    3.67523898076341    1.66517183143149
C           0.63804600878252    4.83669835354061    1.30548629416950
C          -2.69512456956849    3.97349898602340    1.02668656072126
O          -3.03138652575432    4.43731073748605    2.09702457414310
C          -3.42112752135351    3.69859021456684   -0.18939045073824
C          -2.52235901376785    3.13673189797832   -1.13215494450482
C          -3.28590039043969    2.83594682686310   -2.33311215243302
O          -2.96964279294334    2.37603406470239   -3.40258001594966
N          -4.61207694985307    3.22058889268064   -2.01150204644833
C          -5.66976198348830    3.04189188530514   -2.98021002066991
C          -6.41568489898029    1.72692160539451   -2.76750106268684
C          -4.70455869389163    3.72405695082069   -0.74064154481234
C          -5.81224884209665    4.15063299887483    0.02299732851275
C          -7.15251124338725    4.07596516549990   -0.23117099343535
C          -8.12414598417993    4.41542327128987    0.73147935153571
C          -9.43136081360164    4.84357320754681    0.51290547496595
N         -10.11811512641180    4.89535657861945   -0.71302064928262
O         -11.28514575883934    5.23617327048635   -0.69089420084669
O          -9.51601148370290    4.57556685054720   -1.72855209513198
C          -9.99526582417369    5.28820940018560    1.75192453061146
C          -9.05424851442251    5.17361242228686    2.73222884872377
C          -7.88649998889084    4.56335058407668    2.18227485425122
C          -6.83307159248947    3.99674900600612    2.88053192976975
C          -6.21866863059421    2.74039410018851    2.55614494727210
C          -5.43284732927475    2.34973659069910    3.59530996738742
C          -5.44685274307963    3.37501081976328    4.59270427723681
N          -4.64512826752159    3.31043945408268    5.74695208846096
O          -3.95964648450948    2.31477671149954    5.89138080404925
O          -4.67972505965656    4.23638474468322    6.54317051651980
C          -6.28948584829256    4.41076855560134    4.18230060923338
C          -6.42968838592174    5.66485042212611    4.81063804097625
C          -6.88007892867760    6.80668366567171    4.20726674125757
C          -7.12878302775365    7.99703775913730    4.92727942899192
C          -8.19890600417690    8.85935964048480    4.69989500525050
N          -9.07325289015572    8.87894120159568    3.59783287714497
O         -10.04171740834325    9.61327077400570    3.66730756854392
O          -8.81650199660624    8.17707962718606    2.63001967147239
C          -8.41238353964125    9.67053979161533    5.86826053955487
C          -7.44078008582214    9.39916441735486    6.77216619351876
C          -6.49630963281896    8.48125586888456    6.17667367737605
C          -5.16807493811677    8.32282508234897    6.48938459411664
C          -4.23037850628461    7.43247151137061    5.84318326834140
C          -3.14170376630325    7.29003153245069    6.63117040690825
C          -3.28465972513092    8.15298082439378    7.77782246818350
N          -2.26531478398691    8.28935137334223    8.74168674842419
O          -2.44757951934680    9.03627814758645    9.69056184244830
O          -1.24743092617473    7.64594920429421    8.56782521433291
C          -4.45704319371380    8.88320524731759    7.66682996555062
C          -4.79104790033068   10.00966896855319    8.46262557536669
C          -5.43409759810620   11.11506110159957    8.00468880084194
C          -5.73642921997955   12.23630366402325    8.81474837430701
S          -5.07363535761896   12.41372426291420   10.41400066858319
C          -6.59497726901387   13.28721776546956    8.50224891991778
C          -7.34060543315816   13.40191205540367    7.22885486922920
O          -7.24006663077876   12.60669591634887    6.30879327836478
C          -8.20810040473384   14.56412145004388    7.20199862720408
C          -9.08058785968466   14.97699581641916    6.21585098282234
N          -9.70472760998996   16.10168242165383    6.63325595491960
C         -10.65192140096306   16.86662423039934    5.86066522193872
C          -9.94978563003107   17.96302716100721    5.06236228378178
C          -9.25379277555212   16.44129054204008    7.86333222521151
C          -8.32107765815940   15.50909774096229    8.26415159986090
C          -7.58805398188365   15.41634707265102    9.51299094689377
O          -7.67983508614787   16.21191403693715   10.42942570946425
C          -6.70935462215256   14.22676950606848    9.55419773345941
C          -5.94883777798150   13.89328880086850   10.66648185111088
C          -5.80170722172146   14.65662238458727   11.85863280963543
C          -5.55442461009513   14.20329940074428   13.11081250527632
C          -5.00589314006137   15.13201996950946   14.14624177571160
O          -4.96489383414159   16.33572422123020   14.08936490176529
C          -4.46715342337430   14.24896194622185   15.20034802299939
C          -3.74295610702298   14.58335903194772   16.30862295165607
C          -3.29459029389595   13.55814305785157   17.17079144510280
C          -3.59525544281014   12.19940868718598   16.85984353973954
C          -3.13129775662873   11.18127377652068   17.71726497608616
C          -2.40989742201538   11.49717103305415   18.83406720026911
C          -2.11806753960252   12.84153916950226   19.14359498052310
C          -2.54973724282336   13.85116521809297   18.32997905053729
F          -1.41057882441463   13.12131532624062   20.24548026579981
F          -1.97214760732804   10.53007109139711   19.64915143902603
C          -4.35398137616226   11.88329449899353   15.71026504067901
C          -4.79319978806473   12.89526913443019   14.89863152280557
C          -5.60997635535611   12.87299737208486   13.68988642607260
C          -6.46617066599784   11.86821160459270   13.33078590806510
C          -7.41448025336554   11.97463903160532   12.29139652887437
N          -8.21915678420519   12.02376823707676   11.47432775807541
C          -6.55698370301245   10.63843520828161   14.01713994048830
N          -6.66350953834254    9.62271629602534   14.53963569991196
H          -0.35625246774676    2.69455015239093   -0.92334024618023
H           0.27662798680111    2.73647548022876    1.68823990695847
H          -0.73778841519292    3.84539073197234    2.64501314734586
H           1.08390372230320    4.68636147467117    0.32469743641530
H           1.43313329038397    4.91369062188849    2.04133961045168
H           0.08136794128850    5.77062571062658    1.29625042926667
H          -5.18375185759791    3.02396826493330   -3.95997761218587
H          -6.34805556154117    3.89632809474507   -2.94114884276951
H          -5.74182526544339    0.88849119047382   -2.92594400354445
H          -7.23526743854032    1.65485978480105   -3.47626632603615
H          -6.82010304589861    1.66080540933145   -1.75997251994178
H          -5.49912397869819    4.56578309788382    0.97310425696390
H          -7.53391611805645    3.80740964381612   -1.20557711539498
H         -10.99829723837575    5.65742056646783    1.85048092215682
H          -9.19661620495255    5.37569892521616    3.77608602698520
H          -6.45535349074387    2.15955403906670    1.68616436509254
H          -4.87581640235477    1.43707394956580    3.68852448829914
H          -6.12117100844916    5.70332549293353    5.84766425162488
H          -7.19209011086288    6.79030097864484    3.17278768891651
H          -9.23154146829990   10.35514868151493    5.97291404208648
H          -7.36658730769728    9.81295087391145    7.75648356699252
H          -4.38864668120606    6.94365480196302    4.90395616673411
H          -2.28402140411629    6.66787072329594    6.46347709718918
H          -4.39039036751118   10.01704725927181    9.47010330309803
H          -5.75524713036443   11.19199044550257    6.97425685955876
H          -9.28885037491068   14.52671062320574    5.26546261574519
H         -11.37957030766041   17.31055348757108    6.54497494404269
H         -11.17627709082899   16.18734931563379    5.18433815362281
H          -9.42517887474487   18.64257502693413    5.72979558735270
H         -10.67972945279120   18.52971109842759    4.49169771679791
H          -9.22916519515266   17.52900141631044    4.37343699172684
H          -9.61685264007867   17.30283652059309    8.38776446128829
H          -5.85243099933450   15.73556059832761   11.73890337811664
H          -3.51443082174982   15.61603145115878   16.52385354523635
H          -3.34828255648988   10.14784767074420   17.49662659782692
H          -2.31692879966585   14.87439321323912   18.57998585594837
H          -4.55939347795410   10.84758669692096   15.49100322686629
