107
 SCF done       -176.854843474650          0.000561174002
C           1.80408375280635   -0.13323659227414    2.07302359899109
N           1.53407333204753    0.66952154428889    1.00987090731723
C           1.79869637235638    0.35907558578776   -0.37210117777235
C           3.27944802455931    0.51685477633308   -0.70879225718842
C           1.01757396319572    1.92286435634494    1.42461791721892
O           0.70263139528431    2.80544373689128    0.65200383264998
C           0.98151592186872    1.81632559747729    2.86086960741326
C           1.47581741841433    0.52556597267069    3.22531375853500
C           1.44392983998007    0.44181825852724    4.66905269469845
O           1.75334183786992   -0.43560995737417    5.44402554218507
N           0.94478721196660    1.69910895564423    5.08469680326516
C           0.71541969741075    1.93711319743981    6.48826722166777
C          -0.76766306599541    1.87357060761649    6.84570295027615
C           0.66483921419043    2.52106537243976    4.01237293590828
C           0.18893442007345    3.85970517072549    3.97750265159075
C          -0.04540669942123    4.73849011357246    4.98056377434515
C          -0.45468760307606    6.08087163304772    4.75708347946631
S          -0.78424843227096    6.71339098230109    3.16399849268122
C          -1.09249512874613    8.30236868266399    3.78976556281603
C          -0.96388331352021    8.31434164610896    5.18046116672627
C          -0.61111911760418    7.06136959636490    5.71179363170343
C          -1.18984333450291    9.42775278070213    6.00534841741283
N          -1.37316231386476   10.30289418831498    6.72568402096667
C          -1.38474899625294    9.35259836463564    2.88110213520407
C          -1.32979646613339   10.67294564603794    3.18042662441988
C          -1.55841785302882   11.71466131788509    2.23905126875717
S          -0.91164692329311   13.28980841469375    2.55878839790252
C          -1.42504032926270   13.91525659382111    1.00326438709337
C          -2.10867617374367   12.92802957869237    0.29734711296060
C          -2.17507398837256   11.69058951173338    0.99966854607599
O          -2.77961237506526   10.59667255560036    0.45085289099255
C          -4.04771835058418   10.25393005318907    1.00039025183642
C          -5.10624172523426   11.31708694288372    0.73868105554736
O          -2.75202196135846   12.95462625507398   -0.89034600439671
C          -2.44725807281697   13.88254855426400   -1.91194863587441
C          -1.01402257174150   13.76515821501603   -2.41690781429756
C          -1.06972833929036   15.24944408646304    0.66715333351589
C          -0.35052212040453   16.05747819648833    1.48374896568210
C           0.09793573306028   17.36204715696890    1.15043768129362
S           1.10922748280404   18.21970420366151    2.28266399415803
C           1.29626762326205   19.57118260305748    1.19911911652113
C           0.57379888184894   19.34197696219731    0.02581281700859
C          -0.09221585191388   18.10670145058601    0.00510682685247
C           0.50289275109085   20.25112957628454   -1.04475831510094
N           0.40268421353116   20.95338485461751   -1.94582394594106
C           2.10274959597708   20.68854227249930    1.50397342174694
C           2.75942105747935   20.82884774572155    2.68714572738193
C           3.61497687694160   21.91498005989976    2.98198406356326
N           4.25064289127758   22.07794484039170    4.19538182214770
C           4.08462574834473   21.25765639761155    5.36953635642569
C           2.76119139558797   21.53603029566893    6.07844346219590
C           5.07582923160445   23.21461923245082    4.21226371376571
O           5.72843773235277   23.55074224105981    5.18163356025049
C           4.93309239551764   23.77992911756401    2.88972374229957
C           4.02212222345649   22.96277723333959    2.16368332704496
C           3.89586837128927   23.50932021499724    0.83598536156950
O           3.24615287733210   23.16673804435344   -0.13317996456652
N           4.75237886737596   24.62798931626124    0.83941271399711
C           4.86187053063332   25.47859944114611   -0.32000323535811
C           4.03234370775348   26.75205687196629   -0.17207159109007
C           5.37120764609723   24.79786858690606    2.05468460719619
C           6.31154618318718   25.84784217006021    2.32272743425289
C           6.89344109985076   26.01427672489508    3.51242244488332
H           2.20590206647365   -1.11984589008486    1.93277815717830
H           1.20578992988214    1.06013566266946   -0.96581637820258
H           1.46620301186359   -0.66191942051012   -0.58148884499372
H           3.59663507346590    1.53996947680800   -0.52271818908273
H           3.44746655288941    0.28494431627358   -1.75668874065991
H           3.88508471856359   -0.15160056915687   -0.10062342238841
H           1.15887419864184    2.89237410121600    6.78188470482007
H           1.24847096400761    1.13613661053149    7.01047191295051
H          -1.34142953677201    2.60339534261798    6.27887994765252
H          -0.90050287292213    2.06790437958043    7.90659522868031
H          -1.15634220532322    0.88284987555563    6.62353453184779
H           0.03754090229362    4.20620477882184    2.96083766253259
H           0.09706311932290    4.48004650731019    6.01856621317709
H          -0.46821950712257    6.89109019980347    6.76472444460425
H          -1.59504452706779    9.04965557787673    1.86461373768626
H          -1.02530891168737   10.99202969744563    4.16769400258073
H          -3.95477316449352   10.07009474547313    2.07968171871671
H          -4.31100617901442    9.31907949878036    0.50061333100881
H          -4.87173458306240   12.23089198855342    1.28094693092043
H          -6.07684106813483   10.95529922513495    1.06630461036632
H          -5.14663158419306   11.54554557368144   -0.32295934675108
H          -2.68084221570291   14.90512707801951   -1.59079101334122
H          -3.14454212102638   13.61597914895203   -2.71151631515467
H          -0.29823472614344   13.99663473002812   -1.63113560405781
H          -0.86187275025840   14.45190738721854   -3.24511365662601
H          -0.83013610452463   12.75030935272755   -2.76106191335991
H          -1.37107817115095   15.62787081522337   -0.29555651533715
H          -0.05505988425706   15.68863803939641    2.45705784111729
H          -0.68601503353228   17.78175287466393   -0.83037767561506
H           2.19668314190611   21.44525494987327    0.73460965290320
H           2.63758425746014   20.06359455106373    3.44283923879407
H           4.91670181835184   21.51198103672306    6.03238080237762
H           4.16349141405980   20.20136387173582    5.09534572576558
H           2.71653412027485   22.57880249261217    6.38291918049903
H           2.67873603914577   20.91107352939916    6.96343025785885
H           1.91703646039031   21.33029857299018    5.42389586697217
H           4.48132176664563   24.89020211837473   -1.16000882840573
H           5.91335762178540   25.71713075678818   -0.50451976260396
H           2.98456633927122   26.49612037141437   -0.03517857041965
H           4.12746407462221   27.35976177852173   -1.06780527529413
H           4.36137862614264   27.33527677749964    0.68540516225791
H           6.54373834180203   26.51531720191133    1.50425122812359
H           6.67749914658361   25.36178887116721    4.34175535608418
H           7.59986502839716   26.80883390899220    3.68061941418089
