122
 SCF done       -200.407257619216          0.000676827197
C          -2.10508544877815   -0.16805398121293    5.86755549487084
N          -3.16376431544694   -0.51217848229328    5.09494092444711
C          -3.09330139535592   -1.20843185778718    3.83492772744141
C          -3.10788137711653   -2.72122623689356    4.03672648838578
C          -4.38987112460639   -0.15991240133895    5.70476841466430
O          -5.48046754301058   -0.37186414790500    5.20150065027565
C          -3.98854458589047    0.45745984956288    6.93903627432960
C          -2.57005999843250    0.44238278169716    7.00987341001909
C          -2.19501767430917    1.07652297851908    8.25787504191257
O          -1.11822084129295    1.31396344776121    8.76194193503941
N          -3.42235821475148    1.41521695000001    8.86914151356574
C          -3.43411746747436    2.11737489488626   10.12773357154819
C          -3.70940572672223    3.60864136807905    9.94632159199125
C          -4.50660298535675    1.05888738813648    8.09012809018461
C          -5.88890402311589    1.18460232974473    8.27591810119069
C          -6.65098366713945    1.69012156243432    9.30607938717461
C          -8.04574426536396    1.72896340552465    9.32002479194272
C          -8.95664618809310    1.32515379837808    8.34794152647931
C         -10.35741272506251    1.38926711960301    8.48903652051715
C         -11.06326153631615    0.93239825513778    7.40386316841970
C         -10.24644281591588    0.49314313587909    6.35501131945273
S          -8.56578871386832    0.67152365812609    6.77478609797876
C         -10.59799635393195   -0.04452927500363    5.11390252527328
C         -11.86425868471359   -0.33522997307244    4.59545252754410
C         -11.82069170341182   -0.89324008697803    3.34150469126149
C         -10.52471101048366   -1.06573149856953    2.81783007498750
S          -9.35624225262384   -0.47427192852111    3.97033873448970
C         -10.30644364232826   -1.63786836746297    1.56415329048411
C          -9.22194828606506   -1.96820713985566    0.76782416461278
N          -7.84694174689542   -1.85744402826334    0.88988090402592
C          -7.06928388179687   -1.39533750503155    2.01459659879916
C          -6.94846141862832   -2.45343728469491    3.10516548406850
C          -7.17662691530780   -2.33558615798189   -0.24197064044867
O          -5.96408261236238   -2.33516922179013   -0.35364203538619
C          -8.22402452048096   -2.77099597100772   -1.14589028770261
C          -9.43973758184887   -2.54645409210959   -0.51127207152986
C         -10.51182049403554   -2.97712064340971   -1.38455231169975
O         -11.72040663401706   -2.97519311698366   -1.24570480175061
N          -9.85296905701203   -3.45304826126958   -2.52168580443609
C         -10.58748920543692   -3.94226084099958   -3.66154749169356
C         -10.69742621584703   -2.89195049712905   -4.76479832033174
C          -8.47470218374069   -3.33625649288164   -2.42272951245894
C          -7.58126646456917   -3.70800636225859   -3.41098016430744
C          -6.20320017756437   -3.55295286739402   -3.29342680090240
C          -5.32557975041390   -3.88011897690090   -4.30281305302034
C          -3.94184224872973   -3.70756873377565   -4.23936882560583
C          -3.01845468593654   -3.97200430329410   -5.25902655095883
C          -1.71755029041524   -3.67801654005958   -4.92618439596334
C          -1.57545026586162   -3.18043972014024   -3.62548131671635
S          -3.12517063437254   -3.08744595787260   -2.82733588652915
C          -0.39628674049058   -2.78135780948742   -2.98980042053480
C           0.90264513627451   -2.74401528148231   -3.51177807230423
C           1.83784586528785   -2.27299265019926   -2.62658360900871
C           1.32826120442546   -1.94824435708679   -1.35327826867397
S          -0.40075497149542   -2.22288159578974   -1.33844088113914
C           2.09831297873789   -1.39402741533779   -0.34074679423856
C           1.86480950588175   -1.08193362994975    0.99759006951387
N           0.90174404247246   -1.51817101230706    1.89639006898634
C           0.02977404945667   -2.66310690331132    1.78690336728019
C           0.79163869582344   -3.95163397783196    1.49887178789531
C           1.03338981655522   -0.88876782730378    3.14087317518651
O           0.30111814746748   -1.13373084357486    4.08676610180170
C           2.14852806762630    0.01338611451597    2.99995549859593
C           2.66003319526114   -0.15561703619115    1.69505033279786
C           3.76464433230420    0.74710883521878    1.51989019586646
O           4.51534983326627    0.96296228278944    0.58655223474628
N           3.85090211850317    1.42479687876289    2.75907849142979
C           4.88990216222098    2.39414587360649    3.00041853260212
C           6.02323095724111    1.81633603024366    3.84513436738368
C           2.89612029903226    0.99894969783063    3.64661497953661
C           2.73206045577367    1.54189393293934    4.96167624259501
C           1.84341292428416    1.06492270168638    5.83855098248780
H          -1.10545812079044   -0.38614415548664    5.54114079126652
H          -2.17832364395401   -0.90327318884407    3.32366065661609
H          -3.96382847848249   -0.90485620411667    3.24767604895824
H          -3.11094521234820   -3.22133735049329    3.07220832878065
H          -3.99914830962871   -3.01580278591568    4.58557061917728
H          -2.23050681724275   -3.03266380257798    4.59901840053279
H          -2.43598621498355    1.98128332246210   10.55553210274121
H          -4.16632554016464    1.65718240397204   10.79688569894723
H          -2.92311857902240    4.05609292423438    9.34334217069258
H          -3.72982954714756    4.10289511615606   10.91413818363266
H          -4.66176317258936    3.77105675613110    9.44627306584328
H          -6.41303783850028    0.78069913641431    7.42260441303231
H          -6.16862619821958    2.08480280707630   10.18830232272571
H          -8.50472946907324    2.12977393002107   10.21602437035289
H         -10.81618880935078    1.76534696667333    9.38687344880307
H         -12.13685425518989    0.91002504407211    7.34806085404441
H         -12.77035653861148   -0.14318705850118    5.14128126036077
H         -12.69277637955036   -1.18967067623082    2.78586580218129
H         -11.23667085799324   -1.90220055734735    1.06948012280753
H          -7.50027382396666   -0.47434664584907    2.40673336342727
H          -6.07622688137751   -1.16970409527796    1.61552937283991
H          -7.92946831067167   -2.82198351736308    3.39594474920217
H          -6.46988959509055   -2.00890257824159    3.97279504681890
H          -6.35453956321213   -3.29224981878900    2.74946223566299
H         -11.58703583784320   -4.19020657195496   -3.29295812857548
H         -10.11380797675445   -4.85398959295857   -4.03736306574274
H         -11.21486332248472   -2.01366424673811   -4.38700299849514
H         -11.25952158206073   -3.29369875331921   -5.60348125333988
H          -9.71257146656995   -2.58895572064914   -5.11316360733695
H          -7.96886226783827   -4.12927281215527   -4.32882848603657
H          -5.80750732403903   -3.14083617220256   -2.37427646211390
H          -5.71396967099970   -4.28526754680983   -5.23006662557526
H          -3.32256931220911   -4.36444069847572   -6.21354052047653
H          -0.88102323321403   -3.81470585721882   -5.58743541329338
H           1.12727357520732   -3.04990826674687   -4.51757099396921
H           2.88367364560683   -2.16565073169238   -2.85332400883796
H           3.07920200810461   -1.06507598021038   -0.66749939908413
H          -0.73827335125326   -2.49121620572879    1.02923243581550
H          -0.46197264076577   -2.74061301395771    2.76089248031028
H           1.28766532971741   -3.91024875884223    0.53269631727617
H           0.09797511410103   -4.78779473947881    1.49620278703217
H           1.54348531960547   -4.12378105135381    2.26615673801935
H           4.46402617191688    3.28196093247219    3.47708567738912
H           5.27289471895669    2.67283858257574    2.01420254834620
H           5.65826447855020    1.49439660957052    4.81798653014396
H           6.79491435254582    2.56745483347047    3.99011228335420
H           6.46180104765541    0.95979351408346    3.33904731246326
H           3.36415929892848    2.37841511150142    5.22681311614547
H           1.21729614869735    0.22512669633599    5.59334480056819
H           1.71985841121320    1.49461249204335    6.81690535616192
