92
 SCF done       -156.760895658412          0.000344898509
C          -2.04524690753377    0.05290757118574    4.96768077083461
N          -1.55404962771225    1.22745185048522    5.44668986485920
C          -0.96415237373943    1.42879842385093    6.74614453256625
C          -2.02034831481490    1.44282061034240    7.84807210667749
C          -1.74720569636272    2.28049453997931    4.52575385834815
O          -1.38763829170212    3.42430365057944    4.73663269841521
C          -2.40503607330244    1.65157582890281    3.40805454050754
C          -2.57118719148719    0.26390341387642    3.72505444184068
C          -3.22404751166624   -0.37481079176905    2.60017862294349
O          -3.56745210683849   -1.51731881437630    2.39504413552712
N          -3.40546503135531    0.67123192407360    1.67286712303071
C          -4.07795596537865    0.44404353374024    0.41711384337340
C          -5.53331323121035    0.90359994752986    0.45991315093692
C          -2.92799919343891    1.87470606340019    2.14263324796435
C          -2.98327579445062    3.08404725390212    1.39716087566558
C          -2.49998783085333    4.25519047353267    1.87457513423522
C          -2.55646394622747    5.45986777809521    1.12339346439917
S          -1.86856487681127    6.96452330658301    1.72944868488223
C          -2.42350808569560    7.67187191899251    0.21609317969812
N          -3.02680957045918    6.80296668740683   -0.54932628988187
N          -3.09721290677542    5.60066173283302   -0.05488885402890
C          -2.20900132244881    9.04108007797553   -0.09692952018038
C          -2.64958325954876    9.60601710783070   -1.24490139308900
C          -2.42052647291652   10.93849810041817   -1.55467459013999
C          -2.19856991405761   12.10549609064068   -1.81085176257398
C          -1.90163202744320   13.43730473529190   -2.06423526059013
N          -2.33464590638575   14.11594873805823   -3.16631500138490
C          -1.85494233438144   15.39288711268882   -3.13262198416896
C          -1.09562114282138   15.53116455357102   -1.97000570879664
C          -1.12757150554164   14.31414876608074   -1.30282457710457
C          -2.11128551345814   16.33913705667032   -4.11547844014829
C          -2.30591353956823   17.19695535874170   -4.95326858180478
C          -2.49059297931401   18.20300658873527   -5.89136582980055
C          -3.35729617720591   18.13186033824660   -6.92531075090973
C          -3.52501737579636   19.17123251242806   -7.87893718267866
S          -2.57056632222671   20.65500028116129   -7.89896362286294
C          -3.53002054823539   21.09393457331093   -9.30923246187723
N          -4.40668281889492   20.17960779791078   -9.61919306115473
N          -4.40176509466787   19.13328887334264   -8.84363450308261
C          -3.32501003601258   22.31685597476215  -10.00117726972747
C          -4.08374432921162   22.67495286880767  -11.06515561387573
C          -3.87956683092482   23.88295192813194  -11.78146225821065
N          -4.66696545085632   24.28300733368568  -12.83814629665709
C          -5.84776610676723   23.61680506628026  -13.33026454938043
C          -7.05120261916333   23.84879974232518  -12.41979655745843
C          -4.23790112805800   25.50422378013719  -13.38573299785049
O          -4.78549183391947   26.04254306494068  -14.32803875554529
C          -3.08471458732895   25.86562570731829  -12.59294054756317
C          -2.89472079924144   24.84926288530171  -11.61345019302907
C          -1.74241058023719   25.20739633189377  -10.82371881965756
O          -1.19717036310146   24.67232634416502   -9.87641553867349
N          -1.30663125613008   26.42591103471025  -11.37740112234689
C          -0.12041402576600   27.08090171130669  -10.88378116487345
C           1.08999811174072   26.80937081331105  -11.77433674677834
C          -2.09532404128968   26.82322354262011  -12.43143085106361
C          -1.87725845197020   28.03568877714924  -13.16731771185265
C          -2.63951270030952   28.40486003331348  -14.19883316652585
H          -1.97682255310268   -0.85115289610836    5.54403036069362
H          -0.45331709905073    2.39472597233548    6.70640409008753
H          -0.22852718741600    0.64061290986801    6.93330824154370
H          -2.73767521094923    2.23974027956302    7.66787450725235
H          -1.54692058544043    1.61135136426644    8.81120891921600
H          -2.55390982029974    0.49539565077472    7.88165775862732
H          -4.03951060548278   -0.63587571634649    0.24738901469199
H          -3.53471471289240    0.94823717272117   -0.38678824876785
H          -6.06688332950052    0.37040542239872    1.24303921984847
H          -6.01297369636211    0.69433924778780   -0.49216148017255
H          -5.59961077464497    1.97090983995878    0.65846644035088
H          -3.42183453812048    3.06996948332602    0.41046126132641
H          -2.04744551349782    4.30833865032222    2.85498159395813
H          -1.66670538803146    9.62845545276552    0.62987641654206
H          -3.19626545952761    9.00590928746784   -1.95975090607663
H          -2.91273744164231   13.73130803515411   -3.89574110346205
H          -0.58942619853760   16.42485525124330   -1.66360674095177
H          -0.64938146758217   14.07157911363412   -0.37479210403034
H          -1.88544503307733   19.09239913239888   -5.75400907756113
H          -3.98175644065527   17.26255920433287   -7.07308144368685
H          -2.53057210205446   22.95829244294625   -9.64624993723857
H          -4.87147031301982   22.00782524464895  -11.38294471401006
H          -5.64693914518964   22.54781136204956  -13.44268265357719
H          -6.04499915550217   24.04572566536130  -14.31696017904335
H          -6.86745530691723   23.45341166475694  -11.42330681279198
H          -7.92676758066199   23.35766097288507  -12.83515868066177
H          -7.25494646622415   24.91390015360265  -12.33896972560584
H           0.05872524772804   26.66713208171924   -9.88717185639513
H          -0.30323838334635   28.15507752967145  -10.79075484272930
H           1.28306578178136   25.74039597710439  -11.81959434305819
H           1.96690408928492   27.30403848751791  -11.36578700078893
H           0.92026725739623   27.17285028802075  -12.78552655786065
H          -1.05460388214221   28.65998721615936  -12.84661873921980
H          -3.46366049616881   27.79890677457623  -14.53623378309561
H          -2.45311467787947   29.32337877453338  -14.72816163284490
