141
 SCF done       -245.299669189581          0.000838561389
C          -7.87718786186546   -0.27183697776459    1.19793584745803
N          -6.61490120097847   -0.26894540291576    0.72127730188376
C          -5.96616988458552   -1.32375796865349   -0.02125585844844
C          -6.86546592022923   -1.93000619076747   -1.08979144045370
C          -5.92778439276046    0.90959650241350    1.09957468326988
O          -4.77809356557020    1.14529389580118    0.76291316399867
C          -6.88442355962882    1.64484428161292    1.88151232755248
C          -8.08461353877868    0.88294130143556    1.91696558936363
C          -9.03100654718689    1.56914431776744    2.77785680785912
O         -10.16607773048982    1.32248945279396    3.10563644327653
N          -8.30941783345906    2.69106847263492    3.24643348440905
C          -8.93753097460498    3.67661066307106    4.09418677759124
C          -9.30153774146014    4.93728384450398    3.31405410773766
C          -7.04121407751955    2.75351623106226    2.72529655343040
C          -6.11492031356674    3.75154314753857    3.08759149051365
C          -4.97085984307003    4.00016544038790    2.38583662618027
C          -3.95765054233690    4.94002511403373    2.69351182427512
C          -3.05348278919336    5.50988556398069    1.71127602151361
N          -3.31939368401162    5.70969236017600    0.43957830451574
O          -2.69396940818036    6.36525298632956   -0.36969077654090
O          -4.52479893407884    5.14050046222066    0.04148952843229
C          -1.93652658418805    6.08871530122230    2.39990374832571
C          -2.14286846720210    5.92129796323743    3.72994959694718
C          -3.42877664462801    5.30961638714671    3.95281203282342
C          -3.96102627376805    5.13387473653217    5.25770615386605
C          -3.23498866750382    4.62729778839037    6.34118566658869
C          -4.08225854164601    4.47745235189708    7.43133167941078
C          -5.35496024119200    4.95277829043050    7.07416951112307
N          -6.45748234715443    4.94438578201576    7.92467548731982
O          -7.56945698063933    5.17297777677577    7.45033606833770
O          -6.27389247427688    4.68419539669648    9.10390680298336
C          -5.30307509144156    5.44000750647889    5.73743037923891
C          -6.25450268420499    6.32125453186111    5.19898930582333
C          -6.16502010353865    7.00082054431642    4.01073580453868
C          -7.09635271123119    7.94930368748771    3.49052948445164
C          -7.96620024338332    8.70705371596664    4.32880170142272
O          -7.78668519863939    8.50608322644862    5.64969809681976
C          -8.80006408058500    8.67666882350026    6.63429084576293
C          -9.93365400590843    7.67346381370238    6.46131491608272
C          -8.81210105698213    9.68847863196542    3.78395624117507
O          -9.57835927194503   10.40987030572735    4.64692568924695
C         -10.85308014080474   10.91203618346521    4.25779683597769
C         -11.68564666364239   11.07733294648205    5.52095777963162
C          -8.76681313995396    9.94705386642414    2.39306501538999
O          -9.55377433733389   10.94758884151364    1.93205637274686
C          -9.42969890401350   11.40865731597946    0.59444259632855
C          -8.15323725657573   12.20642729391501    0.35652533614408
C          -7.93388243197897    9.19201495259199    1.58270682074594
C          -7.10424849757743    8.19833759234098    2.08982171521868
C          -6.36261117474737    7.38768758861944    1.15202657704388
C          -5.95896729661090    7.86532881463038   -0.05439563609339
C          -5.38648389826588    7.13298497257448   -1.11940025803553
C          -4.98982999576184    7.62293533586734   -2.34587110757880
N          -5.11343702329159    8.93836175290067   -2.83986643425360
O          -5.67757836674066    9.77921298702931   -2.15472377422616
O          -4.66174454578884    9.16253820287722   -3.94729010607788
C          -4.39429511711472    6.57649379768468   -3.14084126250822
C          -4.40321977169049    5.43195741014535   -2.44831538674091
C          -5.13853906266361    5.63007061507318   -1.14486251127575
C          -6.44084485572491    4.85890476876141   -1.23206394352957
C          -7.69825834980034    5.43284381836940   -1.16261934778369
C          -8.67215789002256    4.43586410338818   -1.31138349964854
C          -8.02224564776672    3.22818459145610   -1.51360850066874
N          -8.69617322417547    2.01915246814707   -1.65615670400823
O          -8.05335575396965    0.97012057776120   -1.69983842574399
O          -9.91338956042585    2.04733306508979   -1.73009769285272
C          -6.59413900028957    3.44959341055735   -1.47318894288933
C          -5.65847092283102    2.44149027027725   -1.72100127357073
C          -4.32653268830520    2.45287178696769   -1.37135014203571
C          -3.32957881865991    1.50167299254213   -1.62057818260029
N          -3.31500853031441    0.37179423142899   -2.40395473963775
C          -4.31309613824126   -0.07041961011093   -3.35192351237241
C          -4.42049539727880    0.87352550262991   -4.54608593432278
C          -2.08499366827469   -0.31082710983992   -2.31257672834532
O          -1.84772728320471   -1.33709392704592   -2.91511811290030
C          -1.28996079248071    0.47617313108495   -1.38905193378878
C          -2.07382398499333    1.57782560168188   -0.99948086336264
C          -1.32158210581865    2.37305148392515   -0.06638340826742
O          -1.57665911153073    3.40041749759754    0.53140402934796
N          -0.08566294330490    1.69373539561806    0.03718577258901
C           0.94459643444513    2.16929719613952    0.92727193728016
C           0.95290791296961    1.40098771347046    2.24672995740798
C          -0.05771625938308    0.56233061588134   -0.73439611449492
C           1.07023452626331   -0.31442579822095   -0.82215802443149
C           1.07177635476312   -1.41939254203805   -1.57458499725345
H          -8.55180791963686   -1.08466241639085    1.00946788614483
H          -5.63212036109826   -2.09987627763205    0.67898961413797
H          -5.07527828644255   -0.87072031401006   -0.46496580638804
H          -7.61842203900810   -2.57613351584628   -0.64660884260604
H          -6.26841314636777   -2.52633955649492   -1.77411550133210
H          -7.36915295851378   -1.14116842306731   -1.64149676249656
H          -8.28800277266377    3.91823538938367    4.93981720983860
H          -9.84619831888221    3.20515907010751    4.47796555412018
H          -8.41706106344905    5.39645373479131    2.87766486617347
H          -9.77306463042738    5.65347976155547    3.98005939715780
H          -9.99566210865900    4.69201970348696    2.51372186053224
H          -6.37465129557333    4.36264313050323    3.93457089370832
H          -4.81057206523553    3.41994448473595    1.48735726735808
H          -1.12417784575021    6.58757121625627    1.90912523219789
H          -1.50642226183851    6.25785241571657    4.52631156544419
H          -2.20986226610943    4.31124370678201    6.29754075091920
H          -3.83672419167246    4.05237368520996    8.38608512638993
H          -7.12391569220431    6.47541799085170    5.81870533984122
H          -5.31820533707555    6.79594175873318    3.37353615923818
H          -9.17428119487173    9.70146939244403    6.64149357193707
H          -8.27217049848128    8.47965041993004    7.57103925127633
H         -10.67615918298502    7.82970735566009    7.23854337159792
H          -9.55092553687539    6.65880182910091    6.54909115254292
H         -10.40886188196015    7.79584983811595    5.48960100506156
H         -11.33898253152486   10.21456055110270    3.56780511168252
H         -10.73478609711759   11.87815424287812    3.75706097146653
H         -11.84167630004760   10.11723580090716    6.00545992135217
H         -12.65028966024846   11.50614831530349    5.26546019448127
H         -11.17746108201589   11.74038686123105    6.21581811588547
H         -10.30244098225919   12.05433756368444    0.46509314566225
H          -9.51231119982659   10.57531481591155   -0.11211467600713
H          -8.10399868541885   13.04288175863515    1.04922107351324
H          -8.15221488774271   12.58844766058277   -0.65988866833602
H          -7.26844470451135   11.59087738900187    0.49415073378774
H          -7.95121277766160    9.35325253662530    0.51897930905316
H          -6.18208517629941    6.35338665644627    1.40984723016055
H          -6.07560871680847    8.91995201716604   -0.26070402865438
H          -3.99814885513018    6.74611039877195   -4.12376378086155
H          -4.02765280430879    4.47893626775659   -2.76078035853976
H          -7.91295763385734    6.47368014855184   -1.01930580522598
H          -9.73588128461450    4.56686102791819   -1.26396804041292
H          -6.07328804925318    1.54252665287605   -2.15269568557416
H          -3.96110973247222    3.26204329240830   -0.76144541304521
H          -5.28030621077747   -0.18499879971701   -2.85904229120586
H          -3.97815602150884   -1.05542574551732   -3.69098628894808
H          -5.14891045114390    0.48511086656557   -5.25203592377708
H          -3.45924209629657    0.95495824798636   -5.04830547096620
H          -4.73665113300024    1.86673256806250   -4.23475250350946
H           0.71362590045806    3.22123893901835    1.11896435234026
H           1.91758464952666    2.10657738233067    0.43236867002068
H          -0.01107945869013    1.50272565711212    2.73921440363501
H           1.72291517671123    1.80118975606208    2.90049238010441
H           1.14733791062280    0.34361229894931    2.08155756898952
H           1.94637999810189   -0.04446729523603   -0.24890766594793
H           0.21081767666970   -1.70957811244033   -2.15364953676740
H           1.93731541236335   -2.05693986591853   -1.62453847194546
