127
 SCF done       -208.699297654918          0.000600094699
C          -2.36972657417723   -0.76497942869801   -4.43144955828921
N          -2.68834662523755    0.27234837852349   -5.25271910744515
C          -2.84230967444975    0.19957509880369   -6.68373520531114
C          -4.12495025668535   -0.52896059407878   -7.07575732723715
C          -2.92240135031598    1.45473113149358   -4.51927796280598
O          -3.21843396730915    2.51686643665760   -5.04091767025267
C          -2.71374934609894    1.06501192686008   -3.14905909391910
C          -2.37076011373855   -0.32376974180767   -3.13804837634867
C          -2.16625591992618   -0.72170095056756   -1.75715549364572
O          -1.86762468179634   -1.78011584736072   -1.25162462327826
N          -2.41122622807109    0.45425616978690   -1.02343770771207
C          -2.25253078043405    0.49012416282086    0.41099513101909
C          -0.90592208540071    1.08420624985036    0.81481873103275
C          -2.73008458289999    1.51999405573458   -1.83406776687512
C          -3.03650953310609    2.81101679460776   -1.33961217745782
C          -3.31043146147815    3.85764664262232   -2.16627806849062
C          -3.64311746904369    5.14055716994100   -1.67492388230242
N          -3.90313165783279    6.22287820161024   -2.48386725613684
C          -3.92311884211519    6.23141802078653   -3.92756149122851
C          -5.21451411560861    5.63741215784016   -4.48271863666072
C          -4.21917741893307    7.37102852073988   -1.74373703220556
O          -4.47618737444277    8.44884512551153   -2.24655065493014
C          -4.13936702298577    6.94313575401327   -0.36402932030371
C          -3.77813259700845    5.57359040091672   -0.35415525273015
C          -3.71260702290366    5.14107142589880    1.02240267459603
O          -3.44473631842309    4.06618218814788    1.52940852057802
N          -4.05486756525733    6.28153308080651    1.76342315271733
C          -4.05484007034890    6.26244825967213    3.20561522216561
C          -2.79237779537443    6.89777309734876    3.78338469850268
C          -4.31023544058611    7.36816552038023    0.95338037060721
C          -4.70132262578597    8.63643913561392    1.44195803329524
C          -4.90388390351010    9.70301676519744    0.62268078569247
C          -5.32206275414483   10.98371903393784    1.06263236110390
S          -5.47108931561657   12.28522251589522   -0.09091311103655
C          -6.01734598461421   13.39095475544999    1.12777338919552
C          -6.04824870438712   12.76684851955481    2.38364013083534
C          -5.66914645754069   11.41785561993985    2.32638852839515
C          -6.28181971475208   13.43664995687229    3.65633437539132
O          -6.56917928400806   12.87999399032433    4.68800956828956
C          -6.40062164664453   14.70126898560604    0.75546687937594
C          -7.28433952355130   15.47463350871069    1.44418917437055
C          -7.60268858086204   16.79829020195809    1.05916332097992
N          -8.53892672150186   17.57566632177216    1.70101711739625
C          -9.40054303616948   17.17447160621560    2.78580737489337
C         -10.56391964163125   16.31392026431270    2.29893041412631
C          -8.64612625744963   18.85721533588696    1.12863872718342
O          -9.43443107965398   19.69579162869468    1.51058464901125
C          -7.66277818391142   18.85492078787990    0.06756368448115
C          -7.05599381519022   17.57560682945658    0.03719512207194
C          -6.10424915495610   17.55866201614163   -1.04970338814742
O          -5.35661579888241   16.69361674267014   -1.46652506506842
N          -6.19331266496476   18.84134800859965   -1.60913731565171
C          -5.40789944158348   19.20540077869511   -2.76257133341258
C          -6.21913473406655   19.12245666110459   -4.05364454998459
C          -7.11398581170240   19.63270304909636   -0.95136648173589
C          -7.37935330108639   20.97516986721277   -1.30676673762548
C          -8.17122492855992   21.79322823683009   -0.55897139681336
C          -8.51041993406432   23.14625100605933   -0.80702110139654
N          -8.42826796805274   23.87253279695735   -1.98211953217691
C          -8.11302346107468   23.40862775598188   -3.31219199493149
C          -9.13716549902738   22.40615810622454   -3.83638872514190
C          -8.88615060228027   25.19360774093202   -1.81180105264967
O          -8.92580187850079   26.00443321644721   -2.71762324811566
C          -9.24080719411251   25.28208810077887   -0.41613154639613
C          -9.00734880760526   24.00921178699286    0.16520600815603
C          -9.31169237404447   24.09662318469920    1.57615569933573
O          -9.22677747696877   23.31103111147765    2.49186782200345
N          -9.74858256874595   25.43524788177930    1.74496836779999
C         -10.21350153279300   25.89983194123985    3.02834109513995
C         -11.73832393726142   25.90740073715533    3.10978679913515
C          -9.70826595683985   26.14142339690030    0.57200544644169
C         -10.08115993051914   27.52264805551381    0.46501743852111
C         -10.04838635740149   28.19431525577386   -0.68826138017812
H          -2.15827793087662   -1.74032728008786   -4.82861685176284
H          -1.97170383038390   -0.30351753087550   -7.11558790822713
H          -2.87393528709469    1.23204487822158   -7.04217451335781
H          -4.11202789310958   -1.55393442217998   -6.71211772445565
H          -4.22558928488073   -0.54379870391189   -8.15728013093403
H          -4.98795469267339   -0.02120457850149   -6.65213586690200
H          -2.31405398152218   -0.54833318272562    0.74789909500384
H          -3.06881119473254    1.06175053245651    0.85873923141205
H          -0.09505417698116    0.50406972445739    0.38057105882959
H          -0.80925703977056    1.06638851849438    1.89640343037180
H          -0.82309474631325    2.11418727850422    0.47656272851022
H          -3.06128348942657    2.95701145665730   -0.26936941716945
H          -3.27707268760609    3.71276788955158   -3.23646068287700
H          -3.05880071577861    5.68362967103979   -4.31026009123078
H          -3.84285863009316    7.28144367237088   -4.22279418192301
H          -5.29819206475839    4.58493378835816   -4.22474719262752
H          -5.21854167633891    5.72682020740357   -5.56505200737466
H          -6.07430297783797    6.17051497549400   -4.08338629027196
H          -4.09903864603287    5.20807802758614    3.49296351927237
H          -4.95066421625962    6.76598676691342    3.57995832850958
H          -1.91441296935503    6.35779680739015    3.43741099822493
H          -2.82168937077323    6.85485370152809    4.86861931189248
H          -2.70244260867561    7.93713111839114    3.47520396120396
H          -4.84306306065619    8.74213658755389    2.50730359973860
H          -4.74286946608618    9.58732579246202   -0.44116917911973
H          -5.63988340612931   10.80314028770796    3.20775616458096
H          -6.12541080758595   14.53262606622165    3.62477961127498
H          -5.98337743361328   15.08039017188708   -0.16894694315429
H          -7.79468748974082   15.06896747607117    2.30578610410406
H          -9.78681265412429   18.10100502882459    3.21995276660960
H          -8.81703831165940   16.64599985079099    3.54495911567672
H         -11.16095206728225   16.87135248485697    1.58136982400208
H         -11.19579023065599   16.04019585950195    3.13912491338005
H         -10.20483794695073   15.40543010921562    1.81992268927894
H          -4.58382895488206   18.48769623861630   -2.80464543758580
H          -4.99272068759699   20.20765552330684   -2.62357062742394
H          -6.57623130243461   18.10626099557426   -4.19908204733301
H          -5.59430023155892   19.39524698070888   -4.89930312134396
H          -7.07816255534214   19.78871547339236   -4.02259306960011
H          -6.88618730081743   21.34560672870776   -2.19085958018682
H          -8.57995483588487   21.41218400623034    0.36951130569009
H          -7.10079460697872   22.99562914324883   -3.34151223305551
H          -8.12780264184177   24.30696260299780   -3.93815100913886
H          -9.18591446421159   21.52354050451010   -3.20260240580209
H          -8.87050448960868   22.10282663478331   -4.84549360597463
H         -10.12265040803600   22.86482555005170   -3.86184394630366
H          -9.80623324382323   26.89414914726589    3.23190579263446
H          -9.81211392309422   25.19702090334394    3.76430298674420
H         -12.16650327369419   26.56575660467944    2.35688772955765
H         -12.05333246884460   26.24639712030214    4.09283350257888
H         -12.12102369078344   24.90265965489734    2.94899766017563
H         -10.39581141054556   28.01531830920673    1.37475098963340
H          -9.73837291308961   27.72341217719299   -1.60625713395719
H         -10.33066117299273   29.23191006258877   -0.73650240818874
