103
 SCF done       -182.589412693119          0.000735096789
C           1.16954533010194    4.51134988327921   -9.18131198230760
N           0.33788600273569    4.26460629549310   -8.13338476840204
C          -0.09639156074685    2.96425297441668   -7.68833473268676
C          -1.14777019411703    2.37230881458429   -8.62334050082151
C          -0.12210939291141    5.46280021748738   -7.54727059257875
O          -0.87538315782886    5.49269352834162   -6.59121335530878
C           0.50816770242422    6.49922774909076   -8.32659813460835
C           1.30593528490068    5.86153964675386   -9.33335674172862
C           1.94199785246231    6.89756924217956  -10.11970458692336
O           2.70178817784145    6.86248820989349  -11.06152792629094
N           1.48683954449372    8.09712961555073   -9.53363097718920
C           1.87131072692956    9.37689964219125  -10.07534383285274
C           0.77857949783145    9.97240519369309  -10.96073730608897
C           0.63386647097266    7.87085081791986   -8.47510835249186
C           0.03548021295878    8.91659835279320   -7.71323666281325
C          -0.77054722267236    8.66737959061573   -6.65849100398131
C          -1.41439264442176    9.65894466462144   -5.83440050306160
C          -2.01226274225415    9.25007014230219   -4.63819434586834
C          -2.63354818847478   10.16133493439259   -3.80608957875430
N          -3.32973627747391    9.62346949466618   -2.66079897953140
O          -4.45767715603508   10.01485759505558   -2.45498422065222
O          -2.75373626281331    8.78097093021924   -2.00714108434852
C          -2.67309037856157   11.53292308181203   -4.10860630714659
C          -2.12003163535784   11.91963315180130   -5.33672679006490
C          -1.50572172577245   11.01747798086648   -6.17253720073906
C          -3.18515491867679   12.54400280296392   -3.21414083084045
C          -3.09519348787998   12.51560701323038   -1.87152989384693
C          -3.57709856590771   13.54578293223361   -1.01415256753378
C          -3.43871429006395   13.61393970260170    0.35245170178097
C          -4.00576459784713   14.75926337299145    0.93652116253597
C          -3.89352273294368   15.06922718077864    2.36363666605384
C          -3.49831629233625   16.33118677102376    2.77393261356863
C          -3.45740164368925   16.64278876976935    4.13309091140394
C          -3.76227348276251   15.66966467719496    5.06858523830577
C          -4.12281763663329   14.38578202914547    4.65470782366396
C          -4.19149543577614   14.08411970155321    3.30283541374393
O          -4.38376754150731   13.51063735678113    5.65915158356247
C          -4.84982675446421   12.22478665515571    5.32762466047511
O          -3.12933730464808   17.93108429954299    4.43118243879485
C          -3.16752450772440   18.33060067506275    5.78205479928833
C          -4.62268819925206   15.57025814803235   -0.00455491941545
S          -4.45187367860598   14.92625381139541   -1.61094342156679
C          -5.35766872516284   16.78026575960403    0.16816574290028
S          -5.48334567442554   17.93543014719432   -1.12964823010368
C          -6.42737873271393   19.04848006649876   -0.19104194458871
C          -6.62583368113714   18.51948498115529    1.06860605856527
C          -6.05012936008735   17.24880639303342    1.26450385674340
O          -6.22499187846050   16.55436420636140    2.43012625661743
C          -6.82672776994501   17.14370893063581    3.47488289691377
O          -6.94328886848914   16.56019621957461    4.51533629874562
C          -7.37988319829341   18.56418777310037    3.29878990856970
O          -7.89828617639507   19.14954191169660    4.20616246326377
O          -7.29959270813144   19.14630044337129    2.08596615964370
C          -6.90677170200560   20.28999189245834   -0.75103855464090
C          -6.56399853997006   20.62649044876148   -2.07560968200999
O          -5.73863368092643   19.74862831250029   -2.73872223708197
C          -4.47731967799815   20.24534456758466   -3.17249017102079
C          -3.62980484818218   20.79172775890397   -2.03065869522808
C          -7.07691154291436   21.78594296804800   -2.66874540435367
C          -7.84661440639808   22.64795410010537   -1.88715700535189
C          -8.15882040954085   22.34084802333361   -0.57677620405968
C          -7.71643752369158   21.16009825308796   -0.01594270605889
C          -6.90904259907933   22.11947510514682   -4.08514416508677
C          -6.89215193478482   21.23788358104513   -5.07593935966918
H           1.61004694029319    3.70558451678475   -9.73885778092755
H          -0.52138261689733    3.10523919734236   -6.69080333045236
H           0.77030865540155    2.30002452487353   -7.61959140846674
H          -2.01369910133405    3.02774858838107   -8.67398887920375
H          -1.46683991847357    1.40209929713502   -8.25328582489703
H          -0.74503434984545    2.24904038612586   -9.62641534782540
H           2.76616434675742    9.19187007767310  -10.67659127306832
H           2.13104532645279   10.05930181178032   -9.26069154904516
H           0.57102793777772    9.30168609320679  -11.79062786806756
H           1.10678239057084   10.92812087867979  -11.36034629158347
H          -0.14216200496868   10.12218326144844  -10.40083117430717
H           0.26666107448705    9.93092063360096   -8.00349944988942
H          -0.94952477285641    7.63823716921425   -6.37653787601755
H          -2.00281051515682    8.20569754865010   -4.36156952176737
H          -2.16173810513671   12.96321088295673   -5.61131801083968
H          -1.09705579169991   11.36565138289722   -7.10833613434831
H          -3.60376871228971   13.42392568502327   -3.68570189634911
H          -2.60821974510049   11.69412524116731   -1.36165563054474
H          -2.91330792466798   12.86765087149346    0.92154972116463
H          -3.24014309895919   17.09513988805053    2.05711625066782
H          -3.75320659804392   15.86238133633743    6.12758416620023
H          -4.50806701539140   13.11378843398904    2.95710365321336
H          -5.02835139031382   11.72278508304825    6.27720082860535
H          -4.10518070119305   11.66083434949034    4.75609427975746
H          -5.78523110747442   12.27230449470702    4.76203369226148
H          -2.92153332937995   19.39139654230128    5.78170653483062
H          -2.43004121045018   17.78751810146943    6.38089352555718
H          -4.16415805126981   18.18713146789899    6.21042508361034
H          -4.62111600621892   21.01910035937989   -3.93479281828899
H          -3.99554207098418   19.37777356445217   -3.62818476282634
H          -2.67311402106328   21.12738769506053   -2.42013061979274
H          -3.45580267990631   20.02190593148580   -1.28338417051741
H          -4.12911015948091   21.63425288880009   -1.55596365148703
H          -8.22465534263305   23.55558294579447   -2.33435673946535
H          -8.76384102397131   23.01727270298411    0.00687160791801
H          -7.98616040712875   20.91279725435497    0.99589863796697
H          -6.88416530266243   23.18024928968508   -4.30414356053479
H          -6.95444453291151   20.17783711491722   -4.89575347702989
H          -6.82281261867757   21.54909301467946   -6.10426712958790
