98
 SCF done       -168.579620091250          0.000945359531
C          -6.12834546362122   -1.68665635356045    1.72896773991419
N          -6.53825686591548   -0.97929555921553    2.81435940171337
C          -7.11484346278699   -1.53295642931508    4.01374304899809
C          -6.05644329788907   -2.19631220015327    4.89137434980557
C          -6.26844855553576    0.40346966307873    2.66307425853925
O          -6.54648731743241    1.23776200593817    3.50020679268120
C          -5.65332691825619    0.48942555859711    1.36198612107214
C          -5.58353245492031   -0.82827031651496    0.81421848241912
C          -4.97592897074586   -0.72044505407896   -0.49440611069186
O          -4.70973349957232   -1.54193840380402   -1.34238130395383
N          -4.71783649814046    0.66261559449644   -0.65079050923837
C          -4.06111234230293    1.12187195344849   -1.84968222532018
C          -2.56744646964724    1.35249010669288   -1.62934032398499
C          -5.11563176461452    1.38790006343766    0.45275615983530
C          -5.06667070539510    2.78651931222140    0.70800732540918
C          -4.56933398743951    3.79537794927078   -0.04563757797938
C          -4.62283925488128    5.16604931844746    0.33719497661506
S          -3.96333354858950    6.37470875367329   -0.73340221793407
C          -4.40763844239514    7.66994368626844    0.33136833374816
C          -5.03019758566302    7.15852408950997    1.47060944088890
C          -5.14693727486172    5.75699669775884    1.46537846442015
C          -5.49681012600373    7.92318287814646    2.55430255969316
N          -5.88741769147533    8.50015097260505    3.46581646246022
C          -4.12334878887355    9.00856072436912   -0.06103783295044
C          -4.51808572925938   10.11710195836546    0.59967177796298
C          -4.26414302022981   11.47674064858452    0.19206401008184
C          -4.92959109691482   12.50995058268211    0.85286034627480
C          -4.74481440445789   13.83393395104289    0.49225174624196
N          -5.45459511583651   14.81795144265380    1.26819926415048
O          -6.45777804661039   14.45260005898632    1.84360166159273
O          -5.01096482678305   15.94756027908105    1.31574371113186
C          -3.87707220192098   14.20036930823250   -0.55604594947140
C          -3.20179800060681   13.15046803192043   -1.19706882887738
C          -3.38236217060797   11.83635390268783   -0.83961052405620
C          -3.73110135653376   15.56184392464267   -1.01021587812739
C          -2.61707906489258   16.05727843603852   -1.58522919165930
C          -2.48271603333439   17.39901030478044   -2.05135070806314
S          -0.95179301577962   17.94831061742938   -2.67484548671012
C          -1.57135889525929   19.53538258087708   -3.00018329511976
C          -2.92057897059759   19.60798976499106   -2.63298056190275
C          -3.41905808816769   18.40828514166970   -2.09955893848668
C          -3.74109261466758   20.73883454364241   -2.77621545567084
N          -4.45329999298983   21.63278031941726   -2.88805877315380
C          -0.70693228568726   20.51144253618695   -3.55168530036390
C          -1.06271573810025   21.78993020019384   -3.84530461448966
C          -0.15139852190520   22.73281772753196   -4.38085103479713
N          -0.50445528152065   24.02309483744745   -4.70667891430712
C          -1.82828640703677   24.59452490972866   -4.64184222483485
C          -2.71196192645922   24.12040786954909   -5.79277853172905
C           0.58674921865215   24.76321858933202   -5.19222426300933
O           0.50695848362483   25.92572930587874   -5.53655063877949
C           1.69604827657302   23.83586174434273   -5.14830015238386
C           1.20700897572272   22.59620904474055   -4.64962085412798
C           2.31184731681810   21.67115520878345   -4.60477707191666
O           2.39113869585876   20.50347708708964   -4.26810855246368
N           3.40675799601414   22.41350669652785   -5.08329919596848
C           4.72656086523821   21.83461854641063   -5.13788113064905
C           5.58160992907849   22.25714033391221   -3.94541823580090
C           3.05283340648210   23.70322376676809   -5.40392682493495
C           3.97803067739625   24.67129112056759   -5.91858323911282
C           3.62881978629273   25.92752125891366   -6.20480324442578
H          -6.26197282492086   -2.75171756957743    1.68076661728417
H          -7.89005728051615   -2.25490401893673    3.73973323932984
H          -7.57422029711904   -0.69806758789013    4.54986107192468
H          -5.57157242102094   -3.01198008631602    4.35916406824369
H          -6.51831237484482   -2.59220861309971    5.79129986164481
H          -5.30025599475602   -1.46963316309759    5.17833041844613
H          -4.55904870305731    2.01981790865285   -2.22353137541833
H          -4.19491173990619    0.32125620872048   -2.58404580738545
H          -2.39139591805070    2.07178491861096   -0.83248845965298
H          -2.11065681846631    1.71988550854204   -2.54431020639954
H          -2.09028596270856    0.41478699782413   -1.35575967516989
H          -5.51135517622300    3.03005341607026    1.66414942362503
H          -4.09865674077425    3.61187007430884   -0.99851858794783
H          -5.60442891631505    5.21060849709877    2.27036252757658
H          -3.57076600778800    9.09436341433173   -0.98719890646210
H          -5.10602108258483   10.00985085365324    1.49995239728497
H          -5.60495328278327   12.28876480891940    1.66685666383442
H          -2.54272211147217   13.38810042396810   -2.01760917702629
H          -2.83172085918848   11.07232592702667   -1.36562658350806
H          -4.56784985997910   16.22399407892042   -0.84644798170942
H          -1.73264313178690   15.44203460966144   -1.68185728250284
H          -4.43413243915479   18.30259014583298   -1.76189375172682
H           0.31008340460031   20.19112719721377   -3.73949217882774
H          -2.07250304466577   22.12277104049421   -3.66250037697007
H          -1.69008646232324   25.67754100131364   -4.70652065445943
H          -2.28839657999179   24.35356365440487   -3.67948520278993
H          -2.26473965712997   24.39628249408177   -6.74491627536182
H          -3.69012595790100   24.58627707455629   -5.71724353777254
H          -2.84019646494678   23.04058047126009   -5.76727163918711
H           5.20981757426143   22.10648415628326   -6.08044832466467
H           4.58064130800460   20.75073267064651   -5.11715144054442
H           5.70914711548409   23.33710075920722   -3.91995621860441
H           6.56016544242213   21.78923281992100   -4.00886681581538
H           5.10535872812862   21.94367700136720   -3.01964123608289
H           4.99582398924984   24.34001447118950   -6.07288766235293
H           2.62212506629370   26.28087618141945   -6.05639595759851
H           4.34696594671678   26.63074066106612   -6.58993169068730
