114
 SCF done       -205.460238763228          0.000673605024
C          -0.76238638844859   -1.68881302783180   -0.09331683022168
N          -1.89542058193375   -1.27361256371766   -0.71559636478952
C          -2.85152258770892   -2.11813102393000   -1.38523958723688
C          -2.34458767602187   -2.56550215651895   -2.75403705716484
C          -2.00934436478026    0.13885316573534   -0.69518716208877
O          -2.94367764218687    0.73155150743522   -1.19702026419425
C          -0.83194915466931    0.57196901903570    0.01706933617617
C          -0.08559081120887   -0.59626289356627    0.37342778708132
C           1.09135587159379   -0.17203515172356    1.10561791816503
O           2.00898253111496   -0.78670345545272    1.60259009706183
N           0.97187096470693    1.22850386565294    1.15531534472566
C           1.99386842234640    2.04124606269718    1.76859019875700
C           2.89663586718276    2.70476015597775    0.73091462223259
C          -0.16009589739263    1.68467826036515    0.51148984769569
C          -0.48875580334970    3.06109350593850    0.43843405082819
C          -1.56605682145804    3.53179361288144   -0.24285321865008
C          -1.92032267677184    4.90414167481210   -0.40406841538578
C          -3.16929477778144    5.18891772848166   -1.02298716158711
C          -3.67347891974350    6.52225737551441   -1.13764968546419
N          -4.93435092818711    6.73055601248645   -1.58361590045175
C          -5.63995510444262    5.69642567524421   -1.94932579154412
C          -5.10484106652831    4.39181662151491   -1.92925605499222
N          -3.90973575560258    4.15665046374037   -1.47007010447029
C          -2.89799709707473    7.61416094969210   -0.70361180792597
C          -1.61210969642259    7.34961926610172   -0.17522778691353
C          -1.13896626227305    6.01279713042359    0.01321695252104
N           0.06316112864698    5.82324648917337    0.59810803922885
C           0.74795500314087    6.86254792511706    0.98381902605544
C           0.31973437940175    8.17465692648429    0.69951319645613
N          -0.81704474218486    8.40037893704021    0.10909278584215
C          -3.36556154673986    8.97165416433360   -0.61782680859538
N          -4.03837694422762    9.68880803362492   -1.56264609813624
C          -4.29273192408356    9.30355057525162   -2.92934668727856
C          -2.99631667888503    9.14903368636315   -3.71854308948890
C          -4.30356027460261   11.00643327349174   -1.12415777390701
O          -4.88493748108421   11.82882345360321   -1.79890428077967
C          -3.75186232703111   11.05832072855939    0.21243665814709
C          -3.17571121551341    9.79362371020573    0.48854671218609
C          -2.71012003928480    9.79443863841559    1.85753780952059
O          -2.18063505356021    8.95062258023602    2.55176655921829
N          -3.02947357165247   11.08550390582699    2.32158923059524
C          -2.64644933131583   11.51920678579972    3.64176118378839
C          -1.41728388257714   12.42474254874832    3.60992762636883
C          -3.64108479908300   11.85140431823085    1.35128445097449
C          -4.07684293580642   13.18116511407919    1.56786516467847
C          -4.47406094781222   13.99648847395546    0.55365789576517
C          -4.93771195297506   15.33240084430824    0.64575370409067
N          -5.50634252654925   15.97429722565893    1.72668250094682
C          -5.84307186774087   15.43124677792444    3.02061380167191
C          -4.76405073823401   15.73340206952517    4.05949906657836
C          -5.86880946075118   17.29863645659868    1.41883327993660
O          -6.40697559117889   18.04310033522919    2.21367314823670
C          -5.46670389670788   17.47570386512415    0.04188170860199
C          -4.91060774983432   16.25104742153540   -0.40165409227916
C          -4.45558697995502   16.42759763397471   -1.76349167122727
O          -3.88278235431274   15.69902457525468   -2.54166005274852
N          -4.80003345323738   17.76662897414875   -2.06340866692705
C          -4.55830654790357   18.31734597896773   -3.37421310831300
C          -5.82859698638709   18.34622364085826   -4.22101548751363
C          -5.40116572193235   18.39601751228733   -1.00133958083356
C          -5.82652701190346   19.75402477676324   -1.03681700576483
C          -6.48020413252633   20.33551871359678   -0.00626484620013
C          -6.93320520763842   21.70601980797135    0.04919449777791
C          -7.87529499034652   22.06836927548459    1.02886616812218
F          -8.35144055655101   21.13097768326376    1.85356945343879
C          -8.34306671296288   23.36811412433077    1.15209617157188
F          -9.24635498055366   23.66462517685024    2.09424972194462
C          -7.89028628690134   24.37126464603174    0.31267530082683
C          -6.95838702587948   24.03948205572701   -0.65418634346187
C          -6.48926255697596   22.74063485549330   -0.78929234759815
F          -5.57053601794498   22.50086279238529   -1.73880701196357
F          -6.50047816965150   24.99369030793506   -1.47542626247653
H          -0.52100927420034   -2.73311895915925   -0.01818008013397
H          -3.76157243600248   -1.52332560548891   -1.50185103784326
H          -3.06645664547981   -2.98647966226809   -0.75537349180923
H          -2.15309165171173   -1.69860174245265   -3.38162604544293
H          -3.09024599753823   -3.18937833543370   -3.23887516855179
H          -1.42271895482628   -3.13463749240637   -2.65507076566112
H           2.58463974871257    1.35973421778916    2.38774620402641
H           1.52890040172917    2.79219766679732    2.41357529113851
H           3.36737949831798    1.94636739808295    0.10981824080754
H           3.67485462385144    3.27371580630320    1.23238388269075
H           2.32785471427354    3.37595886247048    0.09145891796661
H           0.15541395799593    3.76193844728514    0.94514640403582
H          -2.24458042524191    2.83598226573898   -0.72152481486601
H          -6.64664166503330    5.89478011717940   -2.29234356640751
H          -5.65898129590082    3.54066380562555   -2.29913630260716
H           1.69318442074613    6.66643631094479    1.47236508768564
H           0.94274709593940    9.03311395798426    0.90913214123302
H          -4.90038719811336   10.10627702874747   -3.35597446535751
H          -4.86167017720185    8.37071685708400   -2.93621096268049
H          -2.43620325381223   10.08143759315192   -3.71128532742867
H          -3.22248284092394    8.88601932092017   -4.74831686236442
H          -2.37459657931662    8.36655229156027   -3.28734920796790
H          -2.41735321692935   10.60721193279140    4.20049680052022
H          -3.48855106041648   12.02327794538981    4.12619810580543
H          -0.57580468054960   11.88878424119783    3.17829421123418
H          -1.15555798869400   12.73000865651518    4.61948512144549
H          -1.60203291838345   13.31319383475848    3.00975944473250
H          -4.03385173881478   13.54303475081572    2.58284850843299
H          -4.39449999236693   13.63507419220905   -0.46440244075130
H          -6.02535868284038   14.35918122957508    2.92183787955746
H          -6.77177066414246   15.92011058247081    3.33216593501713
H          -3.78965265693269   15.36795772548215    3.74127445839458
H          -5.02333966253993   15.27147134149677    5.00844077546010
H          -4.69285915511293   16.80823966430326    4.20444225792909
H          -3.82127009722370   17.65885275072384   -3.84295328834119
H          -4.12834701363001   19.31880517598754   -3.28184145846050
H          -6.22111214912797   17.33865571226556   -4.33428603285925
H          -5.60382838876309   18.74504714274825   -5.20623714129884
H          -6.59360379322187   18.96624799662841   -3.75856055393121
H          -5.60996590447765   20.30173168091609   -1.94010230992742
H          -6.71722696040621   19.73965910367107    0.86632524008192
H          -8.25114032288906   25.38118461296594    0.41041980721587
