122
 SCF done       -195.622559531695          0.000556904164
C          -4.28948396307155    0.56847101139625    5.30635030164421
N          -5.40794530147649    1.30305392510055    5.56038956265881
C          -6.52338519348006    0.88478678627224    6.37039972967019
C          -7.40672833416193   -0.12030853622290    5.63546618281507
C          -5.38465241390486    2.53157098546836    4.86922864211002
O          -6.28272297054373    3.35796503358764    4.94950049498251
C          -4.13808075090226    2.51016576820875    4.15613416789189
C          -3.48486764693277    1.27230918165411    4.45598026331135
C          -2.22460712777388    1.24679956492524    3.74086237684984
O          -1.33862268000129    0.42312526492101    3.67592883915455
N          -2.20004928879115    2.47056860002721    3.04744198867069
C          -1.06547070867524    2.84790725369069    2.24167831974877
C          -0.14341066871543    3.81963786507943    2.97496921313893
C          -3.32478177465837    3.23399792785688    3.28614413101870
C          -3.55366296021365    4.50111916910247    2.71176222431683
C          -4.68364925120870    5.21691792934916    2.98907473318855
C          -4.99272980783753    6.48140598957274    2.47703307324825
S          -3.95528149093941    7.34226570915383    1.37951004811423
C          -5.01636858089326    8.71235523459831    1.29720657850012
C          -6.15479178969753    8.50435996321186    2.09844073031791
C          -6.14564256976595    7.24385295530827    2.75869270647936
C          -7.22018812053224    6.88774405964319    3.58190352291335
C          -8.30115367418048    7.73173346608184    3.73484283932453
C          -9.39959651211782    7.24359102975046    4.57115332137197
C         -10.69689696962622    7.37834499627391    4.33303751555282
C          -8.29757489654117    9.00922640339699    3.10367852769230
C          -9.40558057171460    9.99578900572187    3.31711319707806
C          -7.23917044561536    9.37213310255790    2.30848627099512
C          -4.71123749126396    9.84556000197228    0.51366044078255
C          -3.64339402784574    9.93778516084356   -0.31729786827934
C          -3.29033961665368   11.06816173293831   -1.12376300390911
C          -2.28573096553034   10.93447200073233   -2.08480309576283
C          -1.92114743013504   11.97150333506241   -2.92719744259566
N          -0.91275155400728   11.60874039937767   -3.88640875094419
O           0.02567763176656   10.95527011511135   -3.47825057686068
O          -1.07111536202898   11.91905479899427   -5.05142038435077
C          -2.49151383178355   13.25904499217138   -2.80053953530930
C          -3.47491044851177   13.38006520859645   -1.79280117777513
C          -3.88470755717743   12.33767470194576   -1.00730609974930
C          -2.12955017782882   14.47373648098335   -3.46967177174328
C          -1.46835571550615   14.67692174733258   -4.63876042054063
C          -1.14092651761480   15.95023485828009   -5.14424426921077
S          -1.40677302473992   17.41535397141845   -4.26394309575196
C          -0.77962079379654   18.41987443097980   -5.53796197317653
C          -0.32992726417830   17.62281782961584   -6.61399441807629
C          -0.54633524652975   16.23133519494674   -6.39297051144035
C          -0.16640339425879   15.30682776666314   -7.37325774463728
C           0.41171675687357   15.71974010874022   -8.55602166902869
C           0.72392736076292   14.68036954852111   -9.53838499627939
C           0.58104497406293   14.76542352418360  -10.85378241446719
C           0.70455448854773   17.09889357361462   -8.74504665000075
C           1.45460582690661   17.58816893480985   -9.94676363763760
C           0.33983059542892   18.01169731188105   -7.78484736403654
C          -0.81489972801196   19.80692455530220   -5.31454772854132
C          -0.63180800746011   20.80627567210039   -6.22855302326780
C          -0.65910070713392   22.16680040201373   -5.85958276978881
N          -0.50540496728010   23.20435427136949   -6.75832391983279
C          -0.37766363841390   23.09160001401249   -8.18940447181822
C          -1.71821401895817   22.80588784333055   -8.86311102477088
C          -0.53861281510844   24.46337204986802   -6.13064049210877
O          -0.42140882043110   25.51414339209036   -6.72738698335596
C          -0.72160240624429   24.15198921387760   -4.73198312603050
C          -0.79728516182696   22.74145600663454   -4.59502019642423
C          -0.98340413851157   22.45638968380413   -3.19795006429169
O          -1.12481378906039   21.41219213941561   -2.58359908907383
N          -1.00124445338858   23.72111553620094   -2.57169911793685
C          -1.12404527357780   23.79723162124245   -1.13776495676850
C           0.23323732155487   23.98222677205727   -0.46175189567310
C          -0.83944569003988   24.74075867405562   -3.48189594168166
C          -0.80918799526794   26.16238094792714   -3.28452770788852
C          -0.86328295447206   26.88187512567470   -2.16209979502852
H          -4.14693187244298   -0.39616979319423    5.75641409205521
H          -7.09642942153963    1.78776810364553    6.59824167218455
H          -6.14813033933791    0.45182368358001    7.30270443774361
H          -7.79322739237491    0.32248863373982    4.72073161286996
H          -8.24409137318005   -0.40803962747519    6.26520506313035
H          -6.83984826508302   -1.01218426929146    5.37741249605353
H          -1.41268364197979    3.27869537096740    1.29803224783458
H          -0.52517413188304    1.92092936408937    2.02906338167037
H          -0.67063645765483    4.73417700680477    3.23773603299387
H           0.70379316400703    4.07228795893897    2.34328354475055
H           0.22747298313652    3.35945747947670    3.88751717379650
H          -2.81547492718849    4.91091011083920    2.03645711835069
H          -5.40897029818649    4.78844699163577    3.66717990745811
H          -7.21543669796147    5.93129706497505    4.08249104989664
H          -9.07906174666362    6.65768920185657    5.42415010699578
H         -11.08032103373313    7.89079923050964    3.46830460980286
H         -11.43165126525126    6.94339868936613    4.98939094261165
H          -9.85399409306103    9.87459873093759    4.29976490903481
H         -10.18535574031898    9.86286090871672    2.56715876312406
H          -9.02705279258240   11.01159233529810    3.22247171826680
H          -7.23981450751834   10.34472469206291    1.83858877904938
H          -5.40751447838559   10.66823624922590    0.59336817434439
H          -2.99414671330604    9.07566392072008   -0.40806145995671
H          -1.78508269898821    9.98377034132182   -2.20134017794080
H          -3.92739980343480   14.35085140737013   -1.65180153296142
H          -4.65226884851218   12.50558589564069   -0.26833106065171
H          -2.47452740224517   15.36514830285883   -2.95532997493213
H          -1.18286454515743   13.84536408831584   -5.26376506876345
H          -0.34068324963938   14.25417496390542   -7.20932911486923
H           1.03942154422598   13.73935820459864   -9.10394473881155
H           0.21209019591426   15.64914150307384  -11.34382226260058
H           0.80013485300122   13.92671458626450  -11.49275583304187
H           0.76435188478161   17.84868520723696  -10.74931549370971
H           2.13683316617578   16.82806859767155  -10.31852515272665
H           2.02252819080891   18.48217112553965   -9.69653903165430
H           0.60974053547901   19.04538648040423   -7.92737562320206
H          -1.04555452132584   20.10073463880437   -4.29730097724447
H          -0.48350693558408   20.57596493883744   -7.27083338649999
H           0.35463558448303   22.31636477409003   -8.43510683105757
H           0.00555067926312   24.05696241501124   -8.53283141089331
H          -2.14178096072717   21.86823399718984   -8.50952285829958
H          -1.58560842586913   22.74777574984542   -9.94014916284662
H          -2.41946169748622   23.60654845650766   -8.64159458571391
H          -1.55366202351309   22.84009872702834   -0.82502310144574
H          -1.81924956789746   24.59610573134879   -0.87014402420123
H           0.86647075115441   23.12402143486223   -0.67293568141354
H           0.10405409563941   24.06236373407735    0.61437562203026
H           0.73367332177101   24.87664325508400   -0.82602598265285
H          -0.72321365441086   26.68439616211308   -4.23020479667781
H          -0.93221134520975   26.46283417278621   -1.17535099238323
H          -0.83079158728794   27.95699777429427   -2.21159190665598
