128
 SCF done       -208.434448050449          0.000588819108
C          -4.96462623229491   -0.70605588150374   -5.35802473520513
N          -4.18012793946046    0.24576833201275   -5.93273072005897
C          -3.65655504399502    0.21104367094573   -7.27401339608858
C          -2.50900683018607   -0.78686790122426   -7.40752486278594
C          -3.88415610028680    1.28675009979691   -5.02524255897130
O          -3.19722263271512    2.25119076861904   -5.32165288883560
C          -4.56419711337319    0.90333865577923   -3.81877652279058
C          -5.22457756356690   -0.34209730598836   -4.06679364483208
C          -5.92962381126097   -0.72407206413572   -2.86032693242496
O          -6.61852843571104   -1.68250969721186   -2.58506563805169
N          -5.66176576643885    0.32372014853056   -1.96250380812569
C          -6.14784200739163    0.28142589247978   -0.60578719999649
C          -5.06028495093076   -0.14875549548802    0.37656166075193
C          -4.84964405435656    1.29769203240601   -2.51364548566858
C          -4.45656693593907    2.45810249192782   -1.81591136732427
C          -3.64585647464844    3.40505736843274   -2.37875675289704
C          -3.20983392873450    4.60812222093519   -1.80348795632489
S          -2.51509783580913    5.78012412833987   -2.87989225600035
C          -2.40572154697311    7.00618857232211   -1.65697331467609
C          -2.79592324303652    6.47937378306354   -0.40314764794720
C          -3.24833333854118    5.12546291654636   -0.48393122969306
C          -3.60994741947521    4.45303485952880    0.68694525904167
C          -3.56221433194829    5.09654253987468    1.90953867486766
O          -3.94855329205220    4.35549426601455    2.98058844816134
C          -3.93353916471946    4.94398812117346    4.26005139330865
C          -3.10309945914916    6.42460792272728    1.98573226494567
C          -2.71274229302393    7.09372578515159    0.85594968146945
C          -2.00088485445610    8.29019666153270   -2.06298598536462
C          -2.20721585246832    9.44905685738857   -1.36514779611015
C          -1.85058686864471   10.77225151329213   -1.67559716780194
N          -1.10232363753376   11.30083292384499   -2.71171801853105
C          -0.48156853821111   10.60986239884031   -3.81477015037986
C          -1.46923915214837   10.34257701827779   -4.94915931522843
C          -1.00486339288984   12.69737330402535   -2.62472368567887
O          -0.37872015038433   13.37233883445091   -3.43009233508404
C          -1.74673805988935   13.05119732917240   -1.44019467514715
C          -2.23728840796913   11.85681697478547   -0.87984340558644
C          -2.97407239813064   12.17754004617618    0.31984531035666
O          -3.55158354015340   11.48069902324947    1.13248489479586
N          -2.90161372051194   13.57723224385874    0.40001558547008
C          -3.49070473254972   14.29740691819326    1.50088618025814
C          -2.44643054813992   14.71545284293644    2.53380279303945
C          -2.17320191973660   14.12423422014543   -0.63762458568154
C          -1.95821534026033   15.49500250889063   -0.82092956634880
C          -1.20121605034567   15.96019025391376   -1.86827993754249
C          -0.92823873998448   17.29275875757743   -2.15652755621882
S          -1.55665454657240   18.62567715142584   -1.22728243596751
C          -0.75669483014448   19.81233622561348   -2.21846555473781
C          -0.01588912537912   19.18378965071946   -3.24314529970619
C          -0.11824719915755   17.76848379132593   -3.21709962308598
C           0.54097996164472   16.98326646409808   -4.17190671232771
C           1.29757716020893   17.61009901989037   -5.13887752011619
O           1.98142698974238   16.97212926190761   -6.11696276181860
C           1.92610708813791   15.56395196889042   -6.16637137817752
C           1.40384470794659   19.02372628467321   -5.15953686740181
C           0.76474940072581   19.80123038157043   -4.23830890774705
C          -0.87138822194660   21.18643466504129   -1.99653604233065
C          -1.65105523779434   21.76724206497657   -1.03256016643350
C          -1.71937796085768   23.16217021673181   -0.87202579149215
N          -2.51254825172980   23.79656991216815    0.06265290423132
C          -3.36036920512050   23.15927978636637    1.03916301629347
C          -2.56351082327471   22.62831618434286    2.22864958365470
C          -2.38994199947347   25.19257394647694    0.00536466568446
O          -3.00038918539154   25.94706540955236    0.73806985042680
C          -1.44271854822970   25.42636330380611   -1.06253371925769
C          -1.05156114523656   24.16306675075993   -1.58244629770165
C          -0.11092306870437   24.39491909563907   -2.64583622220795
O           0.49097330184878   23.63898992743178   -3.39309646984250
N           0.01064923054364   25.79352659566917   -2.70638132930895
C           0.92845994352221   26.41894073137199   -3.62565912589990
C           2.22801520309222   26.83145767897555   -2.93759367772453
C          -0.77544387305819   26.41962143336973   -1.76629096895253
C          -0.85067462895536   27.84364149406337   -1.62085004256977
C          -1.60555743700621   28.44144377651765   -0.69582637356526
H          -5.28837473654321   -1.56699977253554   -5.91258621806642
H          -3.29951959038693    1.22175230515560   -7.49041726619761
H          -4.46309247419678   -0.04210452296270   -7.96931349515692
H          -1.70142629687477   -0.51888240568266   -6.73078679486579
H          -2.12883282433488   -0.77953920192319   -8.42527941517547
H          -2.84514028397058   -1.79309239169604   -7.16679524374789
H          -6.95759938646744   -0.45390481377223   -0.59998167608416
H          -6.55861391469799    1.25721365539446   -0.32947204168389
H          -4.70840610703612   -1.14599190098923    0.12414106969889
H          -5.45963345473625   -0.16516299819373    1.38700584688983
H          -4.21320654159608    0.53312194732863    0.34482229196538
H          -4.85753360958692    2.60010974059470   -0.82653508625101
H          -3.33337267038922    3.24552837500784   -3.40421350733592
H          -3.89713669554614    3.41691300387863    0.68023981957646
H          -4.30543129751644    4.17743983859770    4.93799577621873
H          -4.58974718503709    5.81831356422809    4.30876269290560
H          -2.92038379497288    5.22924387036894    4.56020819191109
H          -3.02852461189762    6.92346627723924    2.93827374363561
H          -2.31193751422940    8.08817800412253    0.95294184745186
H          -1.56083646085360    8.32299751049885   -3.04845272619160
H          -2.77804240200891    9.39877818186005   -0.44914949045992
H          -0.02313738453643    9.68595210859416   -3.45455100710807
H           0.30932013220581   11.27362196222642   -4.17868887138708
H          -2.32526932501370    9.77021800572570   -4.59889606789408
H          -0.97821681804742    9.79035617175346   -5.74598422519461
H          -1.82990777926073   11.28672150600669   -5.35009134631043
H          -4.20711550272992   13.61040642902725    1.96052985157427
H          -4.03095992849456   15.16972899192967    1.12122843908681
H          -1.94666293441285   13.83560282270265    2.93157623235490
H          -2.92772467422591   15.24281916505010    3.35293676377264
H          -1.69790922720579   15.36676380105818    2.08815210349301
H          -2.39827773518481   16.19872721453358   -0.12826471299621
H          -0.76679092613039   15.22999749009209   -2.53657947715098
H           0.44211992303273   15.91148720258988   -4.13566163315828
H           2.54489642887348   15.27503107877822   -7.01419278055521
H           0.90338966755252   15.20847159161447   -6.32189476488587
H           2.32573957044333   15.11494161907417   -5.25252275575320
H           2.01015924874394   19.46313006727232   -5.93553316332124
H           0.85511951184782   20.87549059779147   -4.26770368811688
H          -0.29746791725398   21.82798303055608   -2.65103765822907
H          -2.24034143905241   21.13748332038095   -0.38027915226172
H          -3.92747886603950   22.35513139622841    0.56114482469301
H          -4.05840116416944   23.92894601941074    1.38100717269256
H          -1.83098478104725   21.89041995776264    1.90901532113917
H          -3.23618378081497   22.16721431192656    2.94675695149648
H          -2.04015422309398   23.44654323110363    2.71710672081130
H           0.44814087707211   27.27979588044520   -4.09940796355748
H           1.14280909951018   25.66936311371669   -4.39302314782836
H           2.03695200339505   27.54694291973723   -2.14073960030668
H           2.90213077059240   27.28252334756965   -3.66069261285404
H           2.71188196151072   25.95759153112777   -2.50810857611462
H          -0.26182275892298   28.43606453125943   -2.30787237557155
H          -2.19875895573186   27.87289583515518    0.00039484132053
H          -1.64173526963555   29.51412544553098   -0.61468773868949
