99
 SCF done       -181.284483553273          0.000536192734
C           0.07693843404527   -1.56531035747884   -1.51072994589132
N           0.81801433021977   -0.47734945719614   -1.85594082357537
C           2.07721125854065   -0.50323416309621   -2.55595864908096
C           1.89250103018610   -0.82493666524159   -4.03661912008692
C           0.17153412267416    0.72303118455572   -1.49189719989599
O           0.64547066948590    1.82743268364616   -1.70053755231002
C          -1.05114450384605    0.28773990590222   -0.87148578736078
C          -1.07231665588267   -1.14403491242571   -0.90440930336201
C          -2.30018524652500   -1.58763287336146   -0.27694346821972
O          -2.76606973076867   -2.68682561999523   -0.07570189879401
N          -2.94433671599816   -0.39113222040655    0.09526314900403
C          -4.20344510889652   -0.41309596204696    0.79805395744770
C          -4.02641451024137   -0.19065869864801    2.29876978885325
C          -2.21153090680806    0.72710855094781   -0.24621461381538
C          -2.63719759174669    2.04935183523120    0.02443619020288
C          -1.90132038351004    3.13865807640051   -0.33178237935730
C          -2.25642536304880    4.47739245726459   -0.07518689610777
S          -1.23477311239136    5.77044926575880   -0.68235040613321
C          -2.22748666149346    7.03606483045566   -0.01909641122121
C          -3.31587134373866    6.47498129148892    0.65919465802475
C          -3.32083204926477    5.04620309099776    0.61743517560390
N          -4.40980551039762    4.61951540529072    1.30795125443445
C          -5.07999827417218    5.72712126154704    1.77626026783952
N          -6.24972661428577    5.54635982064287    2.52939400441398
O          -6.59599485060694    4.38801911673324    2.72018898284549
O          -6.83404593146713    6.53039279075072    2.93654409857950
C          -4.44167896143495    6.88946320223066    1.39807371138875
C          -1.93492257729085    8.36901358081490   -0.16975760725749
C          -1.66617183846778    9.54895038521988   -0.31368424036393
C          -1.41203951157038   10.89705547564545   -0.44147492323481
S          -2.41364974918844   12.07322069487375    0.37258979201132
C          -1.46075581771782   13.37485814265097   -0.29204188806332
C          -0.43855709039762   12.89495415730387   -1.09215229632901
C          -0.41001019268679   11.50798999028783   -1.17555480836045
C          -1.75772566280365   14.69160888121782   -0.00007397164246
C          -2.04575122086999   15.84070615239226    0.27789722611434
C          -2.35958764596729   17.15446999590659    0.57871771955393
C          -1.72280819590980   18.21855017094365    0.02628241140148
C          -2.02790382487064   19.56787618427524    0.31115596488809
S          -3.26246092286199   20.05093019207197    1.45255976046788
C          -3.02713740760036   21.76149014335963    1.19853128817035
C          -1.99834293412384   21.94700210028954    0.26839044147216
C          -1.45326857864524   20.71599421810635   -0.21354373152692
N          -0.44246289758340   21.00441157525077   -1.07193156198674
C          -0.32107718446400   22.37408797852195   -1.12608651120946
N           0.68239998762831   22.93764065754549   -1.93349923584111
O           1.36031160093829   22.14970384668659   -2.57865553909472
O           0.82134783584641   24.14234489281558   -1.93093102761217
C          -1.24583477057091   22.99108459936946   -0.31272916458279
C          -3.82578512642335   22.76627689972685    1.79118071317944
N          -4.44604677620279   22.69734985285698    3.01939786114065
C          -4.39626126291420   21.62493436492226    3.98301135019812
C          -5.59225977010812   20.68663722369058    3.84523617749276
C          -5.14846966397052   23.88006094630229    3.31925904599754
O          -5.73744686649241   24.05134902534235    4.36810798967747
C          -4.96398370256443   24.71295063669761    2.15606496438980
C          -4.13365687756033   24.00736994735205    1.23987558145734
C          -4.05097814411875   24.78749091030979    0.02791262586067
O          -3.51815593601450   24.58985806386627   -1.04596227197435
N          -4.80944320500056   25.94266909723756    0.30904587409659
C          -4.90793768438398   27.01132877775090   -0.65478822034536
C          -3.96272313583792   28.16372252566270   -0.32358574849055
C          -5.35773991587351   25.90653339094141    1.56652582605381
C          -6.19767523807261   26.94329965379969    2.09331607284780
C          -6.71169525549354   26.90578181238449    3.32470793555519
H           0.42630344418058   -2.56042999086687   -1.71417781534354
H           2.73513531790422   -1.24049715515131   -2.08560998779402
H           2.51391157150466    0.49266183821849   -2.44164967899486
H           1.43262367249323   -1.80266502137275   -4.16288553432147
H           2.85634885220801   -0.82495793277156   -4.53786411540468
H           1.25567301722233   -0.07810995932665   -4.50435324005609
H          -4.62719102570333   -1.40647804150489    0.62542180407613
H          -4.87823180924803    0.33315288504776    0.36769612932401
H          -3.42557239990538   -0.99169061135184    2.72176123861067
H          -4.99619007776875   -0.18656669367185    2.78879956586105
H          -3.52653394424433    0.75475452731660    2.49997741545737
H          -3.58538308975373    2.17356936819304    0.52436750472540
H          -0.96550307574250    2.98462106780666   -0.85322561927090
H          -4.72485273286059    3.68192593224892    1.50081749373242
H          -4.75175648266210    7.88761596466799    1.62905451690947
H           0.25594577993183   13.54733690396134   -1.59058987508533
H           0.30769956829856   10.94680919953797   -1.74680383962797
H          -3.16128217198539   17.31411140657135    1.28973554794725
H          -0.92963464749423   18.04913046191762   -0.69034027976374
H           0.14700384268211   20.38006061061997   -1.59948964939418
H          -1.35984513030183   24.04575217098327   -0.18509473382522
H          -4.42463032984670   22.09505144886968    4.97085193330712
H          -3.45564178180877   21.08066378310805    3.87379022099264
H          -6.51130994153296   21.24039547717465    4.01855282217667
H          -5.52047139864759   19.88932917019777    4.57922759491396
H          -5.62958519447211   20.24657329781342    2.85144486077519
H          -5.94274315040865   27.35988426086395   -0.71420092133032
H          -4.62826277313037   26.57335706187974   -1.61737221040115
H          -4.18592987876136   28.58254028731526    0.65536285793648
H          -4.06054449654743   28.94613943894311   -1.07099602254542
H          -2.93411187901067   27.81169226020293   -0.32324741261665
H          -6.40767049347554   27.77910239261396    1.44023123728146
H          -6.51552839371127   26.08444313170765    3.99334517474788
H          -7.34073142590677   27.69950007388033    3.68926835951467
