116
 SCF done       -196.558717875738          0.000408154559
C          -3.47957932341879    1.35782215442491   -7.03711909994950
N          -4.23744541073339    2.41667913141649   -6.64163655707421
C          -5.28837205775478    3.03314228299251   -7.41090771268345
C          -6.54722366699449    2.17001406738735   -7.43883414154290
C          -3.91555287239005    2.82119421694706   -5.32326084300924
O          -4.47124082247727    3.73629431313398   -4.74796945652196
C          -2.86391679222435    1.91592195318061   -4.93733620207891
C          -2.62667021371010    1.01717866291064   -6.02660376683704
C          -1.57661723942513    0.11162291781318   -5.61780023411938
O          -1.03363894396279   -0.81659667293521   -6.17475784421479
N          -1.23917241635441    0.53027464001815   -4.30757044336481
C          -0.27207149598434   -0.22994571730872   -3.55487482314511
C          -0.93494638190121   -1.10498283769426   -2.49330367132750
C          -2.00077090771560    1.60570973911015   -3.90169729281048
C          -1.96951422410306    2.35015813692184   -2.68174710491868
C          -1.15954368654015    2.23424611412744   -1.61299531362019
C          -1.22846105975592    3.13524809354456   -0.47613585810449
C          -0.07185438863385    3.72756680147922   -0.05824524522635
S          -0.28379383162262    4.97398031221401    1.10112133292439
C          -1.99548013921329    4.68077698941176    1.09459222459260
C          -2.37966494553440    3.63226733952167    0.24262905114667
C          -3.71495265792965    3.15696074067866    0.31098148498103
C          -4.04656332185504    1.82908694598818   -0.32035419740273
C          -3.46850324847846    0.69446949039315    0.52992402641547
C          -4.65483848130207    3.83411979082045    1.07703065593937
C          -6.07241576675545    3.33289776511591    1.18164080742268
C          -6.91509066369645    3.79435742169670   -0.01041796891574
C          -4.29024412356264    4.99827449622862    1.79709656302229
C          -5.07456935201602    5.86883535957040    2.64294158455819
C          -4.29405807399265    6.77379506547064    3.30031170983841
S          -2.61837375777653    6.67578535252258    2.93668724995079
C          -2.93541689497709    5.35943015946177    1.85063358897448
C          -6.51830497060683    5.88388414194761    2.78817258537921
C          -7.11850230529372    6.11421881066528    3.96461923675739
N          -8.47048561299998    6.18565821188731    4.18708935002067
C          -9.52158663375180    5.95039394104159    3.33844143959288
C          -9.73895735848774    5.75030075471536    2.01052066894430
S         -11.41435813398803    5.43698689326442    1.71395773046716
C         -11.82972215766225    5.56898718926398    3.37895435058018
C         -10.72544391301534    5.85867907507333    4.11726303850543
N         -10.41159873983802    6.03180427697263    5.44378726445553
C          -8.98418258140557    6.27351952187928    5.53772421143813
C         -11.24656199806851    5.96153896010840    6.51670565036848
C         -11.00797116524251    5.42870640134059    7.79160355421910
N          -9.92101961023037    4.73472174979857    8.29598512901898
O          -9.90049811945271    4.47753427160475    9.49128519680124
O          -9.02547293876065    4.37082981303973    7.52118151879050
C         -12.21168463926372    5.57422966735631    8.56460523348433
C         -13.18025380340942    6.12249345754700    7.78713232340827
C         -12.62427030058626    6.44166589993593    6.50757820526914
C         -13.21303480849115    7.26988094223304    5.55619334983888
C         -12.54829096741109    8.18036953499513    4.69044445028282
C         -13.48491639703163    8.96562653126215    4.08912991933744
C         -14.79435671057760    8.55033270886366    4.49869662099703
N         -15.91141790896740    9.18474935784741    3.95990476750286
O         -17.02400147344018    9.00414115945792    4.44990861597393
O         -15.72941622376487    9.92498248263736    3.00287706316006
C         -14.66110296643484    7.47576442366822    5.39367414322070
C         -15.56185176345598    6.50647329653716    5.89852327401006
C         -16.91888585394663    6.57305605547951    5.95639559922829
C         -17.76616234996823    5.55649566750026    6.52256857718309
C         -19.12906736304805    5.41865957407046    6.17150599254266
O         -19.79245928865245    6.01891856064266    5.16187764525425
C         -19.15404491661238    6.65242205068868    4.07264249741575
C         -19.92544316326590    4.51964422147186    6.89808659434178
C         -19.41051931419117    3.74581601842810    7.90333307080052
C         -18.04480924728363    3.82518528391023    8.22108401042059
C         -17.25309715195608    4.71829355296976    7.53194999624003
O         -17.61978757100816    3.00759062248266    9.21974448656503
C         -16.26411516610384    3.05046982575235    9.59770633465160
H          -3.59770671503922    0.92948917121256   -8.01535805740278
H          -4.92990403571205    3.21616876669416   -8.42845470491396
H          -5.50281477644178    3.99038363873010   -6.92797709661368
H          -6.34099370990034    1.20409868789642   -7.89476320331860
H          -7.32419821843522    2.66789996822901   -8.01206498498726
H          -6.91021718179347    2.00679912563315   -6.42706354977619
H           0.47219863278496    0.43997225742269   -3.11645316230746
H           0.23089970337526   -0.86818858377423   -4.28839749831904
H          -1.51033889038322   -0.50598331391453   -1.79131828171301
H          -0.17715852920790   -1.65813483514044   -1.94501085148519
H          -1.60536313034196   -1.81567253105778   -2.97044415565622
H          -2.71137056976719    3.14121799245023   -2.67809212865408
H          -0.33448349439744    1.53932424293884   -1.59421545903653
H           0.91420454961347    3.53575276304953   -0.43625650425738
H          -3.63350617682000    1.76469644990821   -1.32263420765855
H          -5.12014165265563    1.69375667919524   -0.41357519071156
H          -2.38541284823584    0.77472600211370    0.59155619067119
H          -3.72122933335767   -0.26975851142024    0.09427036389126
H          -3.86800546660395    0.73261378511876    1.54124035683830
H          -6.51154159327031    3.69722333568516    2.11037056896963
H          -6.08657352660511    2.24463739146816    1.23788123528795
H          -7.95015850662140    3.48087489084431    0.11222939011205
H          -6.53421676277725    3.37608859651658   -0.93885508906651
H          -6.88150185849679    4.87752853941456   -0.10994103878493
H          -4.63036570450371    7.54633095761703    3.96388673723222
H          -7.10490616625640    5.74107891314976    1.89875887685405
H          -6.53330491188603    6.24122516429725    4.86444159741732
H          -9.07105410844569    5.77375351840351    1.17732201593319
H         -12.84428020125792    5.43210056001496    3.68746005328284
H          -8.50819811897929    5.52976093239491    6.20473420568027
H          -8.81383789087345    7.27724952420442    5.95723371741512
H         -12.28668623333591    5.26760918153371    9.59028143063622
H         -14.16397001961251    6.40069520387277    8.11011362093693
H         -11.48644175732006    8.31396188657715    4.62125170159845
H         -13.31348209088187    9.78694774664400    3.41923504066010
H         -15.07726040715473    5.60110978554830    6.24072037854510
H         -17.39534275106083    7.47675694642122    5.61833974047870
H         -18.21207868460143    6.15969590709865    3.81876542652161
H         -18.96879604049739    7.71269856698077    4.26025388198625
H         -19.85027809352516    6.56067789218206    3.23743640020509
H         -20.96741970446696    4.45368097377500    6.62816154583673
H         -20.03076359553861    3.06107199055901    8.45822250976957
H         -16.21730067524991    4.83584352172181    7.80260787787798
H         -16.15762851213631    2.31580171775033   10.39377479417808
H         -15.98389701579089    4.03772863082791    9.97841719823029
H         -15.60525047404058    2.78036583517963    8.76625210655877
