114
 SCF done       -206.062591747988          0.000274354767
C          -6.72592376858557    0.68250079827718    5.99905110235597
N          -7.83002959904252    1.26478064155759    5.46021938850317
C          -9.19427550765609    0.86102396700773    5.68863403930527
C          -9.53691740380876   -0.41788399156450    4.92886115564886
C          -7.48126124383465    2.30745821279015    4.56630453412323
O          -8.29835665051246    2.97506241162352    3.96370336402883
C          -6.04170266769002    2.32411188720238    4.60885006630925
C          -5.60980125400604    1.30161764433314    5.50828215804703
C          -4.16324594302501    1.33570267794573    5.53795706749143
O          -3.34340095082584    0.67519519781401    6.13578359491131
N          -3.81580678016093    2.37736414768724    4.64605906348148
C          -2.42626645215575    2.72625496966813    4.47903300071169
C          -2.04924521351584    3.97031804982555    5.28071040446932
C          -4.92964377962306    2.97536429123856    4.09390370286435
C          -5.04145933236489    4.04306042107497    3.16370792882894
C          -4.07988331116334    4.77587723257830    2.54968782953005
C          -4.35599148567496    5.83265426432278    1.64193563529552
C          -5.56202420528238    6.32634312180895    1.18692515770903
C          -5.41155958512031    7.39825509431174    0.30910660929054
Cl         -6.75365243314502    8.19735234204116   -0.39953265992420
C          -4.09258444441009    7.76371250507806    0.05844102027465
S          -3.02543659771611    6.72097748160883    0.95059793366350
C          -3.61040878544944    8.81008690570605   -0.76248609912228
C          -2.29303859764682    9.16737127587795   -1.03285226108203
Cl         -0.94865084447400    8.32488103764855   -0.38614258403180
C          -2.15177836724751   10.26734851264101   -1.87347629662199
C          -3.36304364298237   10.79998243783889   -2.27926300756449
S          -4.68542108621756    9.89274425636176   -1.59280406772670
C          -3.49660085139346   11.93573121648105   -3.11649489073037
N          -4.66695135554377   12.52741854367673   -3.53614848731140
C          -6.02334459337867   12.08654699112902   -3.32268211619579
C          -6.41489604752489   10.96346461910123   -4.27905076401411
C          -4.42283155795256   13.66720643963118   -4.32585046631346
O          -5.31179256665768   14.35422709476453   -4.79528238528043
C          -2.98856825528080   13.76631479428944   -4.38523790030080
C          -2.44449853881310   12.69021462050431   -3.63711327051828
C          -1.00434937661564   12.79484690104850   -3.69917724835497
O          -0.11142822912247   12.11509726274454   -3.22769463172905
N          -0.77009582084943   13.92899569378267   -4.49090756605012
C           0.56963569858737   14.39862295491933   -4.74603020429828
C           0.94240626067010   15.57121287628573   -3.84198751169765
C          -1.94073835430428   14.52681215238488   -4.90223529120474
C          -1.99219277069676   15.69013285574978   -5.70309685730670
C          -3.16096292480290   16.28588611651992   -6.06073935282792
C          -3.24395961995763   17.45668517396738   -6.84652482434255
C          -4.39415473076515   18.13106236428881   -7.20651609173703
C          -4.14979148455269   19.26646380226872   -7.97783496544956
Cl         -5.39627648933707   20.29585709090092   -8.55373293490466
C          -2.80221123325205   19.49745260415866   -8.24125710882719
S          -1.83621258900723   18.25904872696480   -7.49410377600690
C          -2.23322661220565   20.55532850259885   -8.99110906832612
C          -0.89312659782791   20.77941082717950   -9.28565198209847
Cl          0.37768655721573   19.75270031744343   -8.75857564908951
C          -0.65386731230800   21.91505039863742  -10.05390213506180
C          -1.80983883364535   22.60547195667368  -10.36904630132865
S          -3.21097855041586   21.80980667843516   -9.69172620362203
C          -2.03586050529843   23.80152897391925  -11.10051252992152
N          -1.11039627353970   24.59586031220040  -11.74261083452601
C           0.30354831321175   24.37289453627337  -11.91673111231429
C           0.58795579920285   23.29557055633960  -12.96064561487581
C          -1.71437267698380   25.72441360873237  -12.34119352278303
O          -1.08321530505601   26.55932485291198  -12.95811857446250
C          -3.11535906236601   25.59993186922007  -12.02510133724368
C          -3.27527263943892   24.40609613575439  -11.26887749168519
C          -4.66704039023315   24.26799725091659  -10.93956639403934
O          -5.27708062589089   23.41227930330607  -10.32219874594860
N          -5.27415879185362   25.39455563881521  -11.52012157481478
C          -6.68621188423883   25.63984791165807  -11.35783112292464
C          -6.96161041875324   26.64727634162607  -10.24381583868680
C          -4.35960697490196   26.19678665833130  -12.16381089360411
C          -4.71223903307578   27.41063998165757  -12.84229639234828
C          -3.81430528945010   28.18400015464614  -13.45633672997226
H          -6.81455379208691   -0.12642811758696    6.70062183416212
H          -9.82223503460046    1.68378211162718    5.33607007331492
H          -9.35383075893067    0.72108580958357    6.76208584939928
H          -9.39624590971333   -0.26659745269741    3.86145128194186
H         -10.57348436717312   -0.68848608649728    5.10906804045370
H          -8.89983933251898   -1.23873802304488    5.25100252777052
H          -2.19946628285368    2.84665274044592    3.41686397257292
H          -1.86067236447148    1.86925720197409    4.85840493275883
H          -2.66498789576441    4.82206563243215    5.00070478111079
H          -1.00551559217299    4.21852897131713    5.10820398483523
H          -2.18987550295934    3.77869316144286    6.34160277751399
H          -6.07614636756328    4.26985020029632    2.94263408364784
H          -3.03090376994478    4.59875965687864    2.72668036635758
H          -6.52113188615073    5.93649743536391    1.47173809867403
H          -1.20032911191183   10.66807878155857   -2.17807295476262
H          -6.65127788798252   12.96171037453822   -3.51606915864371
H          -6.15658739007034   11.77901934412028   -2.28280477552703
H          -6.33413290829360   11.30886878916309   -5.30687298137160
H          -7.44148978428957   10.66371848659106   -4.09009255908618
H          -5.77098623010055   10.09716309000876   -4.14948134697104
H           0.66627086990553   14.67412876493432   -5.79989486609861
H           1.23054484224341   13.55199081439485   -4.53976154851827
H           0.26979234861275   16.41186268198468   -3.99697036443197
H           1.95851823086036   15.89158041887748   -4.05474145639579
H           0.88393007765397   15.26801120842670   -2.79953500648824
H          -1.05965732114869   16.12343588240809   -6.03870734304654
H          -4.10163450582329   15.86449342969132   -5.73002986012100
H          -5.37700203958902   17.81027977648506   -6.91569698789011
H           0.33854008290630   22.19461814027080  -10.34799280552838
H           0.76144542063048   24.13317824188875  -10.95406953749811
H           0.70876392373908   25.32852033644150  -12.26400396148215
H           0.11546852801301   22.35325303605641  -12.69320323444694
H           1.65990188048479   23.14008603169151  -13.04745592716061
H           0.20374375789946   23.61090641868638  -13.92758331311025
H          -7.13111757899444   24.67537977394123  -11.09633498932004
H          -7.11305194053244   25.97905893576663  -12.30566320212334
H          -6.57153334407394   26.27098050471777   -9.30129121583201
H          -8.03242233728369   26.80016894342676  -10.14074014927887
H          -6.48847793077082   27.60340627652483  -10.45708756318008
H          -5.75824311502245   27.68458218314501  -12.84180234877519
H          -2.76745605167504   27.93116314901855  -13.46851327524602
H          -4.10938915629535   29.08857148645865  -13.95942895776221
