97
 SCF done       -182.124567196877          0.000685957241
C          -6.51979479309783   -1.89350851445523   -3.41273552518176
N          -5.80708114229129   -1.57560189546174   -2.29938708554483
C          -5.52438191752980   -2.46009190493529   -1.19659366981367
C          -4.46016342504022   -3.49172561817958   -1.56013373426929
C          -5.31082421999654   -0.25610865106094   -2.36561421818952
O          -4.64162249599288    0.25418085689106   -1.48489835129740
C          -5.79103111067515    0.23497952506057   -3.63205160341646
C          -6.53746717564452   -0.81560714553889   -4.25360663870603
C          -7.02622447766361   -0.32235355960939   -5.52622074328572
O          -7.68576202109619   -0.83292504646542   -6.40238379986842
N          -6.54267325153291    1.00096185980980   -5.58704590238160
C          -6.85258467099452    1.85714991377074   -6.70572898828467
C          -7.99325690312107    2.82149251228403   -6.38895964858690
C          -5.81570580059649    1.34342157213682   -4.46873506565715
C          -5.22839412414163    2.61681124479543   -4.26965272092992
C          -4.49290793997045    2.91779801312135   -3.16726498944161
C          -3.91940958042024    4.18189255166257   -2.92847216959895
S          -4.14915165370629    5.57089102956004   -3.97942779748961
C          -3.18217340557600    6.63144077051370   -2.98144831159270
C          -2.70986870199866    5.90863641109951   -1.89880107083809
C          -3.11977454194257    4.56406620820061   -1.86680231173634
S          -2.47506212910123    3.77814971844812   -0.45730668667039
C          -1.68851774103700    5.30992508125897    0.01038824202996
S          -0.77989607477956    5.52623663657274    1.33172259255940
O          -1.92953271077424    6.29414108149913   -0.86411176875244
C          -3.00831534071118    7.99296920546828   -3.31839866199434
C          -2.24467719459557    8.85822901337622   -2.60171293489500
C          -2.10737082324797   10.22928140598684   -2.91170412012547
S          -1.05411035808604   11.25956648163696   -1.96589700473921
C          -1.44041211115592   12.69629105443482   -2.88240169148381
C          -2.34801046574997   12.35337521019094   -3.87139414298632
C          -2.71114134924347   10.99542030107716   -3.89325629473280
S          -3.84613893713181   10.71641117383557   -5.18428954509409
C          -3.76137228632647   12.44559393908792   -5.61790873905739
S          -4.58001666521448   13.13744489578665   -6.82920275157801
O          -2.93264923854770   13.12219804144475   -4.81950409906829
C          -0.86118953888563   13.94816427583791   -2.57117004133611
C          -1.19537355060695   15.10970555667525   -3.19114313431747
C          -0.61629721538242   16.36271942769391   -2.89197212437613
S          -1.19969910006311   17.82217375689330   -3.66311596153893
C          -0.06399569923900   18.85567549116501   -2.83166593069323
C           0.72179446300843   18.06571772336296   -2.00521549991722
C           0.41508397315125   16.69545929444882   -2.02988996668422
S           1.47058575385938   15.84141943200205   -0.93807963440243
C           2.26004646078357   17.38316956212864   -0.51328888322639
S           3.47814406954785   17.54858918298160    0.53915371884316
O           1.72921544580872   18.41629675478150   -1.17174348258804
C          -0.05311356548635   20.25490957799826   -3.02653257164541
C           0.85723725071622   21.08196086509561   -2.44504858261235
C           0.82914117971560   22.48641279969231   -2.61696676273241
N           1.75608946926948   23.34090749124131   -2.06378627472243
C           2.87061631091472   22.97425158370507   -1.22329198190869
C           2.43737796761302   22.68498450194807    0.21171033311962
C           1.48657013186380   24.68545864935762   -2.37211997814079
O           2.17549326880609   25.60986810052946   -1.98971339082104
C           0.29345714733080   24.63268842999354   -3.18876995364457
C          -0.08083093402299   23.26784606013527   -3.32366182424667
C          -1.27310763091362   23.21338594046897   -4.13332822474596
O          -1.95468489735422   22.28489226585027   -4.52681084963730
N          -1.54580860953569   24.55906243836768   -4.44097330683291
C          -2.72090073874079   24.92201812560200   -5.19472850995515
C          -3.84817838760680   25.40832829306548   -4.28693346435481
C          -0.62444622908400   25.41100388099826   -3.88061386189253
C          -0.66463971437665   26.83554521526739   -4.04283318188033
C           0.22621477351606   27.65489505734376   -3.47937359638906
H          -6.97155472589496   -2.86188262233130   -3.52295068155111
H          -6.44902878852171   -2.95826660565243   -0.88998811519605
H          -5.16832628269597   -1.82855629115981   -0.37825039035088
H          -4.79216588354331   -4.11090863453953   -2.39062006971479
H          -4.26019446760717   -4.13181690057511   -0.70554931964817
H          -3.53736404681330   -2.99244448267859   -1.84515570737755
H          -7.15332346847164    1.19119950115205   -7.51959735464515
H          -5.95427503806195    2.40232184948480   -7.00932563157101
H          -8.89009726776156    2.26240277635393   -6.13427824097337
H          -8.20380579029793    3.43923129029305   -7.25743346932788
H          -7.73889385808702    3.46843969303558   -5.55226104857414
H          -5.37289566500170    3.37623312874794   -5.02591005795432
H          -4.32201303468918    2.16731540507439   -2.40471865819501
H          -3.53394619450213    8.33208264337213   -4.19992861191017
H          -1.70347495358979    8.50893352625162   -1.73487963231969
H          -0.12260569836580   13.94381212924982   -1.78221873842858
H          -1.95459269457103   15.11090808808952   -3.95918001218349
H          -0.82312405472293   20.66087368629753   -3.66897318752526
H           1.63569768729385   20.66486126813862   -1.82405584828324
H           3.55005224497671   23.83126911147394   -1.23384336598543
H           3.38529297238001   22.11106635708713   -1.65452697150036
H           1.96760872706385   23.56568401635448    0.64275072218327
H           3.30537500181586   22.42412994972020    0.81059384634869
H           1.72887298286970   21.86064238956690    0.24908657747421
H          -3.03673810506711   24.01331426030587   -5.71504691003806
H          -2.46277788090889   25.68121426145511   -5.93797324344340
H          -4.11949782543940   24.62560517627180   -3.58287958751910
H          -4.72129084529866   25.65638563687439   -4.88388511096345
H          -3.54491516596635   26.28889190962604   -3.72487583623213
H          -1.46031421484646   27.23447765451722   -4.65636071300868
H           1.02776647388773   27.28032983286427   -2.86521482316734
H           0.17215478475588   28.72003688750835   -3.62431093199609
