92
 SCF done       -158.630001588267          0.001634452890
C          -8.97487704291972    1.82547519835707   -2.46606810063126
N          -8.60587586813275    1.29383281226005   -1.27661064042864
C          -9.24186234967413    0.16993360053581   -0.63276707889086
C         -10.71020223978978    0.43560448267755   -0.32064321823731
C          -7.47726934899367    1.96188733860790   -0.73429927394925
O          -6.96633832795737    1.66150817323793    0.32675498824191
C          -7.16921967542777    2.97371701715524   -1.71539448006483
C          -8.13007324066275    2.86166267141230   -2.76807200952565
C          -7.80939164367008    3.85774842480545   -3.75086689542627
O          -8.34799622659635    4.17050171738109   -4.80097716227401
N          -6.64802064856755    4.48549480479406   -3.26627516448652
C          -6.05200604802168    5.53995580187433   -4.05106282040406
C          -6.26028028351334    6.91773892462013   -3.43185989894565
C          -6.25365677804526    3.96288413040853   -2.04354997326866
C          -5.11335256838777    4.26370062440724   -1.23917842422441
C          -4.05316304256306    5.04391206694300   -1.54993697139375
C          -2.85266953889064    5.27833271615130   -0.80725266884950
S          -1.50648377933538    5.82812223633610   -1.78582961250836
C          -0.47913433183764    5.89678806401264   -0.42183256579707
C          -1.11671263005377    5.54399413649316    0.72958909101744
C          -2.47386756774397    5.18426417895385    0.52109872285356
C          -3.39955843977087    4.95207313632673    1.68732104921535
C          -2.62839879070225    4.70736015738245    2.98954678685480
C          -1.49317484111427    5.70629548541625    3.17819104553028
C          -0.45964832880165    5.51347015569543    2.07293388513399
N          -4.26032555159710    6.11945606278590    1.81326507382818
C          -5.53355341515453    6.07785727808376    1.36816138507051
C          -6.25796079094905    7.11637231426314    0.89850322671431
C          -7.55162956655852    6.91247968659524    0.32649064826988
C          -8.09863776416766    7.80359511868027   -0.60100517085571
C          -9.16787329387900    7.48148783186935   -1.46631836209646
N          -9.47748609637501    8.47216113386481   -2.35077414299766
C          -8.73582607990829    9.49816702272475   -2.20738971090220
S          -7.50855159948772    9.39915558594490   -0.97523158787645
C          -9.78895804906840    6.21334115707904   -1.41607893678056
C          -9.41155607587854    5.43147840643650   -0.31700932840312
C          -8.31981368892175    5.74638859857351    0.52344458124694
N          -8.08226774576898    4.82532866919807    1.50073691044075
C          -8.91186553881690    3.86150428846687    1.46913769658428
S         -10.11148259543908    3.93004246661148    0.20060885148507
C         -10.55861666933432    5.70050139357729   -2.51114774181148
S         -11.14748713737095    4.07020442335089   -2.49242000057533
C         -11.47212136563833    4.11840077546203   -4.19691646061409
C         -11.90677811803703    2.91121639817746   -4.82798384074481
O         -11.95456352288390    1.83100099638088   -4.27104557999860
C         -11.19856344755735    5.37661227623538   -4.72571044404101
C         -10.71310744524276    6.26747701667459   -3.76049787359698
C         -11.31714951528336    5.69598808807265   -6.13279342004923
S         -12.26179924533828    7.05064275574002   -6.67125186726745
C         -10.74763921543493    5.03894427036678   -7.18780068781379
O          -9.91714133607707    3.97010401248978   -7.12941556995773
C         -11.09120992892632    5.59823524724083   -8.46099435675156
N         -10.52620382044606    5.03288439426650   -9.58629665466961
N         -11.12742514209542    5.04773355430972  -10.85673024933182
C         -11.92331150411196    6.69376214758458   -8.35579743552248
C         -12.49155983971429    7.52798718898943   -9.37544803614510
C         -13.32641529374312    8.54168562328456   -9.15227898338272
H          -9.80943863126248    1.43453602320668   -3.02083001490019
H          -8.67699743841358   -0.01329347413118    0.28568319678566
H          -9.15387618733376   -0.70881371536875   -1.28134086973466
H         -10.81220786539936    1.27718867470780    0.35965725180553
H         -11.14757874341620   -0.44365351545789    0.14408962723421
H         -11.26350386515246    0.65992095981504   -1.22929023553259
H          -6.56081850803073    5.50145816731922   -5.01999444648271
H          -4.99261520096317    5.32791191211701   -4.21987156350013
H          -7.32195452912960    7.15039062138770   -3.41868537592385
H          -5.74724489535157    7.67047769181019   -4.02489171677264
H          -5.88343775349757    6.95347471812201   -2.41140414331077
H          -5.12317942162749    3.71216298238656   -0.31001499927575
H          -4.02102204774711    5.51857932383984   -2.51875142736584
H           0.54374422788197    6.19497790836594   -0.54050733457537
H          -4.04876149565468    4.09153147120541    1.50567418827666
H          -2.21736837020296    3.69643212933514    2.96920444417369
H          -3.33459382235383    4.77151543251376    3.81806962323754
H          -1.02353116923208    5.55555457778651    4.15080702099071
H          -1.88352998785949    6.72526565670130    3.15134030882420
H           0.02831215425479    4.54229451803713    2.20282994368856
H           0.31620549647033    6.27965468816820    2.12439796139094
H          -3.78729374672587    7.01158286860247    1.75283434880006
H          -5.99554084316329    5.10339149187588    1.41917037808981
H          -5.82541451799935    8.10352778343843    0.80329647162259
H          -8.83493032026924   10.38739706102856   -2.79812332526970
H          -8.89533964390889    3.04061225663461    2.15819245744753
H         -12.19374707452970    3.02108200313294   -5.88958316101867
H         -10.42045110528286    7.27752487739122   -3.98035357260619
H          -9.48858886124546    3.91749751999177   -6.25611848926071
H         -10.10056173565341    4.13453440244443   -9.38168831457573
H         -10.88712010485792    5.91188025431061  -11.33771354083809
H         -12.14343233606190    4.97723799048964  -10.79651709114858
H         -12.19986437979131    7.30551799065859  -10.39293064020119
H         -13.63817409736821    8.80261626349359   -8.15555600007498
H         -13.71889919960898    9.13440624712487   -9.95870150417214
