136
 SCF done       -244.657577879709          0.000703886250
C          -1.99733390772555   -0.58936167168561   -1.78439243569609
N          -2.01959095863478    0.17633065565120   -0.66553325077010
C          -1.32868621922144   -0.10432998956625    0.56852669704052
C          -2.06541766150938   -1.15685667701497    1.39269138595052
C          -2.88406732763380    1.28458208433671   -0.81811103969749
O          -3.05547466339595    2.11982823045966    0.05126137939863
C          -3.40849061562833    1.13950861895893   -2.15417256447154
C          -2.82795537848009   -0.03283244781033   -2.72189911674502
C          -3.35343487299339   -0.18774358974600   -4.06724842183674
O          -3.16069627442341   -1.01936754712754   -4.92297539314096
N          -4.23106642618793    0.90468611873659   -4.21720006004297
C          -4.93789152183974    1.12866249347998   -5.45733800758678
C          -4.34794534084251    2.28305238235088   -6.26246493758392
C          -4.27420136578328    1.69844657268021   -3.09765921619580
C          -5.09720838931089    2.84399392364102   -2.98918219942020
C          -5.10930813614475    3.60696140139058   -1.86007450519083
C          -5.86935949304909    4.77309352441475   -1.60497525762289
C          -6.33937617839462    5.80349309702484   -2.42831133207551
N          -6.26690731357505    5.97136174422521   -3.81742472925125
O          -5.92261824355207    5.03594815539436   -4.52760774075370
O          -6.55606964758320    7.07227901587486   -4.26019437120731
C          -6.85532638504410    6.85869175079933   -1.60468036064246
C          -6.69969724464988    6.52216606697674   -0.29596130022369
C          -6.11108851867893    5.22109136690076   -0.22501790786921
C          -5.94031209654030    4.44938879319455    0.91349958349602
C          -5.99967089309780    3.02916531313714    0.98733612310300
C          -6.01149642569112    2.66553844921337    2.29850676567812
C          -5.91575313208608    3.83592935748606    3.12365006531877
N          -5.86588286623766    3.69208903077250    4.51322576945601
O          -6.03856833083135    4.66403888533559    5.23908378274382
O          -5.67110862645088    2.56784514073131    4.95139102857976
C          -5.83709557684548    4.96453956864210    2.29863599799014
C          -5.48902572931478    6.31608899166544    2.51596677663718
C          -5.52661848480206    7.02536201050394    3.68070262733441
C          -5.16577193469726    8.40363065659749    3.78361681579086
C          -5.18622341282568    9.19378858758223    4.99691024395838
C          -5.52449260103695    8.75440368583857    6.29862239017665
O          -5.90307754275115    7.47550784199905    6.41646482542027
C          -5.88428006177964    6.76679635385559    7.64501784287113
C          -4.47312745528235    6.56925913236706    8.18195313175802
C          -5.47349237266552    9.71270139256017    7.31506162423587
C          -5.07566004971961   11.04572274376372    7.07220862603160
C          -4.71231706550446   11.48682721311553    5.77652652826589
C          -4.79363191590491   10.53732493982304    4.76530297218599
S          -4.41417376869376   10.78611773550698    3.07115000748326
C          -4.76471540642839    9.16801072670701    2.70792836505312
O          -4.33120484256008   12.76802753227874    5.70692906885596
C          -4.06920531617960   13.41375953991174    4.47456921235549
C          -3.81803544290130   14.88078465751954    4.78349891478601
C          -5.09850529074716   11.85833573849510    8.22547682489803
C          -5.49338391745260   11.19391825903798    9.35298935131067
S          -5.88912724763771    9.52043808102595    8.99894673707106
C          -5.64217821318249   11.65657432896804   10.69589449039806
C          -6.22382012306340   12.81958508414826   11.17952907411801
N          -6.73517941071175   13.91680762928135   10.47053937972425
O          -7.42032460481787   14.71125026937219   11.09319518023226
O          -6.47660015490939   14.02920331784431    9.28178345499740
C          -6.34857816401614   12.72318618426945   12.61225301808149
C          -5.87912900660883   11.51740751385656   13.01337196957948
C          -5.38487247658759   10.81102674019940   11.86464482853290
C          -4.59748199561767    9.66982089043203   11.87531212685809
C          -3.51058493411792    9.39920774865638   10.98945042058479
C          -2.78138555358292    8.35826600754596   11.48502725197728
C          -3.41550968353937    7.87208847930154   12.66873031099496
N          -2.94672855145629    6.76289672355971   13.38218193062542
O          -1.93662537092863    6.21472492830132   12.97150715551128
O          -3.55701618713745    6.40154682631757   14.38102387764002
C          -4.56025767622329    8.63868726313472   12.92182734112013
C          -5.56120717566135    8.35784647462374   13.86966565376103
C          -6.85344606912219    8.79142038304754   13.75336017402498
C          -7.94352549141202    8.62325506555444   14.62732224269811
N          -8.03522992842965    8.04108168623637   15.86862251430301
C          -6.98480693856946    7.44730135839130   16.66416366377938
C          -6.07717419053185    8.50385544600448   17.28757699728877
C          -9.34466219095964    8.13066710963963   16.39551835053788
O          -9.66420640621439    7.69123430242426   17.47669915046874
C         -10.09913200240442    8.82470738402730   15.37020967002059
C          -9.21975493395052    9.10771886750871   14.30993323598924
C          -9.95899893851006    9.81431841796006   13.29257487279474
O          -9.63633710944734   10.27767059203617   12.21993475100396
N         -11.27542409070786    9.90203871655799   13.81866815503085
C         -12.29998933524918   10.56647122702292   13.05046592558123
C         -13.06139605616417    9.58513017024814   12.16169309938711
C         -11.36802038705056    9.30913424541465   15.04821872094895
C         -12.49739797046899    9.17924357714116   15.92440320195710
C         -13.79403638924193    9.38161700156657   15.68027531632949
H          -1.38919373962418   -1.47311338173519   -1.84168829933723
H          -1.28396602226452    0.83659094800679    1.12307084067933
H          -0.31271528170429   -0.43829212302386    0.34048330599197
H          -3.06445411170582   -0.80599439848625    1.63910115732480
H          -1.52644085234423   -1.34511438675776    2.31663590959023
H          -2.14855630720171   -2.08959545188184    0.83910814042015
H          -5.99608115013375    1.30848885173679   -5.24823425427830
H          -4.84256369946776    0.19650306768309   -6.02165266988424
H          -4.48680697979341    3.23299538199852   -5.75313180017338
H          -4.84259099423628    2.33716631525334   -7.22799419674880
H          -3.28540103504392    2.11972389161518   -6.42601907351184
H          -5.73286954236422    3.09030652960156   -3.82283285184087
H          -4.48589036921984    3.29065652057225   -1.03296166288197
H          -7.29487412101833    7.75367204215611   -2.00279169234954
H          -7.07185889819543    7.07650332731549    0.54410053187466
H          -6.13496385095796    2.37241220991941    0.15122596157626
H          -6.09430661360880    1.67305387593831    2.69981093590305
H          -5.16479419260670    6.82070129669285    1.61628867040062
H          -5.86778938384813    6.54317871351818    4.58093778857224
H          -6.31330129299440    5.80085377007268    7.36919447056447
H          -6.52894378736498    7.24891345356769    8.38817188573391
H          -3.99870455557704    7.51865268098077    8.42003729540822
H          -3.87180287378455    6.04967436844916    7.44057793943379
H          -4.51385429514908    5.96733054108292    9.08443193521713
H          -4.66326955567381    8.85474364419040    1.68741147429498
H          -4.93077995309649   13.30916965755069    3.80353252029548
H          -3.18873948214888   12.96837082052336    3.99321645298455
H          -3.62608072760948   15.42255391395337    3.86265044851279
H          -2.96063125368173   14.98128466933473    5.44255920298595
H          -4.68576885335607   15.30812043293268    5.27761710238641
H          -4.81488818752932   12.89285713310014    8.20699398534685
H          -6.75036126366632   13.51036684702801   13.22048938440014
H          -5.78285525250514   11.17431526686081   14.02438631609456
H          -3.24477633460691   10.01020836172866   10.14810336832561
H          -1.87522403400387    7.94583116172385   11.08333597525372
H          -5.26611901673736    7.68866348516274   14.66392152367297
H          -7.13243993312591    9.32977521127306   12.85577029059065
H          -6.41392453349644    6.73894667857928   16.06016939085726
H          -7.49406106400960    6.89354673827938   17.45839544910157
H          -5.61346637301540    9.12535021938077   16.52529031866185
H          -5.29395218929720    8.01640152964871   17.86033064076351
H          -6.65186060510086    9.14235915605386   17.95444250244194
H         -11.78276551710539   11.29300528888490   12.41622779999276
H         -12.96794758824237   11.10247650581193   13.72731734739826
H         -12.38198272956904    9.14890945071530   11.43389978565009
H         -13.85195595385919   10.10624296105150   11.62912657589478
H         -13.49976699428636    8.78017711262041   12.74753126360094
H         -12.19953711170818    8.83141824348084   16.90636354051998
H         -14.19071824390009    9.67595573100739   14.72601388344022
H         -14.51812570104411    9.22711412341131   16.46186836070984
