100
 SCF done       -171.929713359914          0.000749056275
C           1.21425288622584   -0.91097525015739   -0.43238309782329
N           1.95582911448354    0.22914941299784   -0.46458527066348
C           3.37238754788135    0.31057923425226   -0.71767522966535
C           3.69209378249389    0.12132549493065   -2.19814695928346
C           1.15079025207743    1.37103517027008   -0.26913650299881
O           1.59436106760197    2.50702439590844   -0.25615436199824
C          -0.17716731745317    0.83969816328876   -0.10044905023940
C          -0.09407797187100   -0.58416597063405   -0.20913343691901
C          -1.42974363655045   -1.12344416870415   -0.02976584266171
O          -1.85902567537904   -2.25477791731735   -0.04566928238855
N          -2.23263944529046    0.01500633237113    0.17709442260460
C          -3.64581329663912   -0.10425500153041    0.44783234415321
C          -3.95576411208508    0.03113899937286    1.93599051791999
C          -1.50387514939437    1.18135586894987    0.14225187023219
C          -2.07366297966358    2.46572467703976    0.32477131236228
C          -1.32379040005827    3.60013800451542    0.27317205857531
C          -1.87811194888140    4.88477041192619    0.47949244828184
N          -1.14820714352945    6.04834073755952    0.40532146585598
C           0.23688701466673    6.16549823639509    0.01414294002358
C           0.40530430151863    6.05310913522685   -1.49856507139597
C          -1.93087550708055    7.17982350024564    0.67513771836416
O          -1.49946273735076    8.31671893855176    0.66882280762766
C          -3.25079879773622    6.64927505614943    0.94543974440629
C          -3.18547851509246    5.23874881695584    0.81461068126607
C          -4.49604089326468    4.70502532773512    1.09679263588616
O          -4.93111796571073    3.56722781672923    1.11230971133476
N          -5.27653460966520    5.83425049793772    1.39001645787248
C          -6.68269615524572    5.70963913179232    1.68451143305107
C          -7.55147038230303    6.04203977297142    0.47340346753570
C          -4.55030981886867    7.00252300198757    1.29810064154003
C          -5.09912416449053    8.28934152339500    1.54190642373959
C          -4.36503388202511    9.42150740677497    1.42998349655041
C          -4.83666554668097   10.76293204305564    1.64270638065799
C          -3.93230933652431   11.82030478115784    1.51018078466603
C          -4.31780540689638   13.13340100480013    1.71150056460468
N          -3.27444226045348   14.12001042542444    1.56164914940481
O          -2.42122484035659   13.89257138942624    0.73174663959989
O          -3.29320164513412   15.10140126885986    2.27549031366893
C          -5.65400910451679   13.47493960850866    2.01441200309818
C          -6.54870514818088   12.39890017237522    2.14063829238901
C          -6.16060996898434   11.09300840211683    1.97512799327338
C          -6.09732551112828   14.83950626242701    2.14527350413033
C          -7.37885383231075   15.25400463914761    2.06612857405957
C          -7.78310929094505   16.61446353658428    2.18295608434022
S          -6.65397751146791   17.90561177123610    2.50709549029809
C          -7.91246156624020   19.09829426884623    2.46596615516200
C          -9.15435017003701   18.50467800187819    2.23736190307872
C          -9.05853821900050   17.10907673711397    2.06535790198112
C         -10.44673237189648   19.17260850921631    2.30889093348064
O         -11.48265749528406   18.71434422940681    1.89293161534210
C          -7.55628350607839   20.46888502726266    2.61335842264564
C          -8.26119918126186   21.51277830871727    2.12234087233025
C          -7.90504934484262   22.88192070662181    2.30376089278431
S          -8.86717409577269   24.12146115891654    1.53541770725142
C          -7.89400897864026   25.38469132812445    2.20289185275851
C          -6.85958510939907   24.85906464236773    2.96778270032514
C          -6.88588649279795   23.44885361631050    3.02615901224806
C          -5.77141072864484   25.62938966497221    3.56049285356586
O          -5.01240232127402   25.21291415543810    4.39945213149415
C          -8.26091646123801   26.75495477830655    1.95847939357918
C          -8.04647942330302   27.76632517163315    2.79683264109654
H           1.67347077774094   -1.87338629049119   -0.56194566873134
H           3.88836439111655   -0.44400750045350   -0.11658511388305
H           3.68765927744585    1.30585255720075   -0.39271237432277
H           3.36107655459465   -0.85651415227084   -2.54081477652641
H           4.76343949761368    0.20346626077724   -2.35804848616199
H           3.19176397822163    0.88473831735124   -2.78879564859778
H          -3.93454886286324   -1.10013190442154    0.09998961328293
H          -4.19498418106683    0.64818229845653   -0.12345386264507
H          -3.39780645667399   -0.70966560095931    2.50398470465649
H          -5.01738552797396   -0.12779238167806    2.10104256802369
H          -3.69672775677681    1.02318571264315    2.29674234362652
H          -3.13536812235390    2.53472245259984    0.51210133292488
H          -0.26328679664954    3.52813552145508    0.07905224552922
H           0.82885295276083    5.39898959655490    0.51958732921992
H           0.56446757135388    7.15292643531803    0.35064509302138
H           0.07344927103164    5.07950346551667   -1.85102703665330
H           1.45250295642474    6.17616067164758   -1.75833175801610
H          -0.17331668901471    6.82586201780561   -1.99950814574630
H          -6.93789944499245    6.34725537340330    2.53580224787297
H          -6.83892511307244    4.66543767311153    1.96994188323453
H          -7.37316098960122    7.05894874664554    0.13083836874351
H          -8.60153161890504    5.93700243652543    0.73232117889862
H          -7.32472996650832    5.35989276213892   -0.34200406187871
H          -6.14038219754298    8.33151362633625    1.82577616584715
H          -3.32343825706123    9.33334398956226    1.15051268111538
H          -2.90266325867423   11.61431528075009    1.25481280591762
H          -7.57450893752672   12.60791479343167    2.39946644586047
H          -6.89467673924018   10.31258672467709    2.10131579047344
H          -5.33408171039935   15.59050569372283    2.29539662888011
H          -8.18736091379009   14.56053305337772    1.87799529082651
H          -9.92383823895111   16.49694879137646    1.88255343415893
H         -10.42526331239129   20.14674783132255    2.83463271397498
H          -6.61655004100206   20.65414612777858    3.11516159404624
H          -9.14415856915435   21.33301796962218    1.52492603949966
H          -6.15102993945982   22.89427932556611    3.58053693541536
H          -5.66085561993609   26.64828432139181    3.14259678571399
H          -8.79484656469601   26.92762123651664    1.03224301771529
H          -7.59174999587463   27.62664548634742    3.76234808362834
H          -8.34836999809450   28.76818891111252    2.54602035448341
