97
 SCF done       -162.355759478312          0.000319435426
C          -0.52886982786657   -1.20311699599965   -2.28978945249297
N          -1.15278821514433   -0.39717746734972   -3.19111483666986
C          -1.41974734151379   -0.72327953806522   -4.56944253775305
C          -0.14739400264397   -0.69154090133756   -5.41193474079687
C          -1.46759126170471    0.85825494217912   -2.62865828948484
O          -2.03073683336695    1.74402327567629   -3.24678361259839
C          -0.98699726048441    0.76553240472294   -1.27300735541388
C          -0.40883933671559   -0.53593862795837   -1.10482723747790
C           0.08352900668552   -0.63323052073034    0.25336170931648
O           0.64609205244298   -1.51693411813582    0.85974201052985
N          -0.22510210619273    0.62204014943635    0.81767168080443
C           0.07641549195470    0.90688935076478    2.19894091389970
C          -1.15512204497299    0.77403861978986    3.09209297470905
C          -0.86379033429082    1.45363759583514   -0.07604932521315
C          -1.27750897626596    2.77775993045554    0.24795551690055
C          -1.91712382268561    3.57256060798657   -0.63820715772768
C          -2.34989937857278    4.91796830463168   -0.38512892690562
C          -2.33850852736459    5.55560514935985    0.86780636292294
N          -2.71889075045806    6.79749592548697    1.03403784578089
C          -3.14591221423068    7.47155887482465   -0.04114517250577
N          -3.23490599239673    6.95736877549249   -1.27362034833766
C          -2.84333719744686    5.71443344622372   -1.43261294501737
C          -3.52114124537995    8.83397599556614    0.18257779858015
S          -3.42266157758382    9.44823050142486    1.79488596907226
C          -3.94399739550056   11.01947983974529    1.26683412164990
C          -4.18617665302655   11.03477399964183   -0.09945321346956
C          -3.94359115536235    9.79707460657631   -0.71571362380157
C          -4.13946857506459    9.55243265137468   -2.17540606213232
C          -4.22096764292468   10.87467736202649   -2.95100388268173
C          -2.91200882885400   11.48075721057828   -3.03967381223835
N          -1.88066248667089   11.96940983000580   -3.09499848001152
C          -5.18572739679680   11.85394162182981   -2.24439369587442
C          -6.48530315297141   11.23543996357025   -2.10789735957379
N          -7.51139441441267   10.74664110199049   -1.99301374451083
C          -4.64173716993540   12.24291213499870   -0.86065321224018
C          -4.06462943731954   12.11335275722583    2.17255130721939
C          -3.91096859107044   12.00621763937778    3.50755796205374
C          -4.01654380485376   13.08565180160432    4.44965467524981
C          -4.15445206149088   12.83422814534900    5.82818354571321
N          -4.27042540757529   13.78463427863127    6.71932939898073
C          -4.25424390651826   15.04823121412498    6.28756754729104
N          -4.08559649031930   15.40544174107258    5.01080676174028
C          -3.96697005329187   14.44806122272574    4.11922921829181
C          -4.43520298089765   16.06010631967933    7.30131552724357
N          -4.06387071254575   17.37551060780530    7.19212296347099
C          -3.44995439480304   18.02647487608761    6.06069925066541
C          -4.49631237420285   18.52869524194362    5.07085390288078
C          -4.35754490328576   18.09588144990622    8.36428514220561
O          -4.09506659438240   19.27526016314064    8.50616985954812
C          -4.97127705327090   17.12442083283665    9.23847439770047
C          -4.99575296393213   15.87473578254485    8.55202575797918
C          -5.65704443507136   14.90871509687195    9.40499695082898
O          -5.95701728498197   13.74558324640572    9.27266206349061
N          -5.97122528136269   15.65116493650213   10.57262875003438
C          -6.59923331803166   15.01284490974246   11.70269702486629
C          -5.58907970786650   14.66999720993949   12.79534806573076
C          -5.56735285602023   16.95784135904447   10.47926596737428
C          -5.77807603612175   17.92692513204614   11.51837168840848
C          -5.35806605376496   19.19001550899983   11.42599092689203
H          -0.22269432295015   -2.19780826213350   -2.55599307045304
H          -2.12755547343721    0.02715013312274   -4.93181295539985
H          -1.88642625569359   -1.71176171245441   -4.62188151565321
H           0.30427764011243    0.29658040937557   -5.37021687169345
H          -0.38375987235847   -0.92334981566265   -6.44661224245841
H           0.57412495233354   -1.41924118919211   -5.04696829341865
H           0.51407194120183    1.90607765689349    2.28242692608179
H           0.82640089144491    0.16970663832734    2.49988143385481
H          -1.94145411044173    1.45837471908615    2.78051865691183
H          -0.88814168375996    0.99202274344133    4.12255777600299
H          -1.54129190677211   -0.24084025167901    3.04011372298421
H          -1.04859873353329    3.13730576928894    1.24035844983286
H          -2.11779617450675    3.19519609321423   -1.63270205191447
H          -2.02225675927185    5.04430647380422    1.76797698612066
H          -2.91461286817986    5.31758831163561   -2.43804199232889
H          -5.06743115755997    8.99060279178930   -2.32009216084574
H          -3.32892590612282    8.92731809099747   -2.55489476048108
H          -4.57217666105637   10.67895109363034   -3.97149246038931
H          -5.30838325646552   12.75866519174754   -2.85340960395739
H          -5.41798313030534   12.77222397327429   -0.30183124919718
H          -3.79676271727115   12.92724367732167   -0.99477904730406
H          -4.30181535901921   13.07057011575604    1.72956968891563
H          -3.71578033110177   11.02887191690792    3.93132299022065
H          -4.17417757263676   11.82086562018887    6.20953917587253
H          -3.80720481145709   14.78129369434272    3.10128055745843
H          -2.77367127853874   17.32515813124905    5.56964677583180
H          -2.88432232629411   18.87220403499557    6.46252117902313
H          -5.05552686108770   17.68900974071827    4.66744816718383
H          -4.00744141931106   19.05301521862060    4.25472219459057
H          -5.18040992404579   19.21267474392046    5.56706610328610
H          -7.04571759296795   14.09203478938408   11.31611453766932
H          -7.39540737844066   15.65253850809426   12.09414231372667
H          -4.82986053344105   14.00087074590447   12.39833429523609
H          -6.09251398953891   14.17468015221969   13.62115091052181
H          -5.09886798462732   15.56633794791470   13.16917214222462
H          -6.30512241397535   17.59008766351521   12.40048870620219
H          -4.83148752482912   19.54661509590752   10.55643117707139
H          -5.53398386341222   19.89484186842635   12.22046687367890
