81
 SCF done       -140.422657150178          0.000393731565
C           2.11954158207981   -0.60973976145984    1.33164880693893
N           2.71327353917127    0.53175553222549    0.88817664826168
C           4.11504204499673    0.69319952689012    0.59450432823405
C           4.93351855865849    0.89243793784533    1.86785194503245
C           1.79243059441207    1.59776681396803    0.81763055365923
O           2.09259848180799    2.71539531564857    0.43601639149488
C           0.54862725579269    1.01690417759612    1.25717470283630
C           0.79694457417831   -0.36260462918659    1.56113670246783
C          -0.44923197005050   -0.95236233074535    2.00455637767543
O          -0.74405240677065   -2.06983211717390    2.36368854009405
N          -1.36904348261562    0.11625138027132    1.95216845039911
C          -2.76124050348998   -0.08826330026996    2.26971723414819
C          -3.62321361289519   -0.19131557402380    1.01356510463255
C          -0.78743539508688    1.28359536041846    1.51099647472564
C          -1.49346155645108    2.51828173315111    1.40179658256162
C          -0.90980171774501    3.63576535853288    0.91994482506629
C          -1.52630794209588    4.93414340710456    0.79679072337377
C          -2.78395778376802    5.24470674453695    1.30576095441607
C          -3.31125555651871    6.52624187002760    1.21199652949811
N          -4.65842156039572    6.68036677057541    1.69984353149112
O          -5.35386770080084    5.68255664943143    1.68684346542438
O          -5.03755618555400    7.76666727103160    2.08062867689329
C          -2.60371584518252    7.56097563823632    0.57636140840371
C          -1.37371799912688    7.21209522820642   -0.00169707542242
C          -0.83492501198091    5.95535571958414    0.12454937422820
C          -3.03611162455661    8.94148618326436    0.42190346695125
C          -3.37898287558266    9.77065605581307    1.42247926680516
C          -3.73444691656484   11.14307452292438    1.25569768461942
S          -3.85352981322381   12.15902865753817    2.65895520914439
C          -4.28749413475494   13.53070611616098    1.69532731510604
C          -4.34622849391137   13.19000006194629    0.34685677124044
C          -4.02629773628172   11.84609240319922    0.10598791549655
O          -4.68479773820360   14.14241896564573   -0.55013089886634
C          -4.76050249129122   13.76889785431819   -1.90647690746964
C          -4.53465288778133   14.81024693291543    2.25795572101416
S          -5.00092739850724   16.14753888587530    1.25547336564587
C          -5.08108719369525   17.20335191117480    2.63856296996509
C          -5.44817562598698   18.57481110110141    2.44669077287915
O          -5.54279863140154   19.42345085949797    3.31018542869164
C          -4.75251591786663   16.52614282237930    3.81706312334139
C          -4.44771048734951   15.17310473323881    3.58099632389982
C          -4.72448211044562   17.13796329114022    5.11095417178062
N          -4.36843177713904   16.45320119417880    6.13620918196677
N          -4.34254330642050   17.02209597252098    7.32358164827235
C          -3.94673053429650   16.34029205948555    8.45648856599186
C          -3.55208597089810   15.00440056387363    8.38593155386871
C          -3.15777054263726   14.34436059209489    9.53202855148281
C          -3.15085792864309   14.99839349893870   10.75436288594219
C          -3.54370519032322   16.32515998844024   10.82520651020808
C          -3.94038436140218   16.99787745539374    9.68598714265678
H           2.68325851300439   -1.51715411737071    1.44550539935894
H           4.20152601087887    1.57617837106071   -0.04443900460147
H           4.46840091227000   -0.18478706294456    0.04631296790834
H           4.59521894782228    1.78269945924637    2.39241324288755
H           5.98385734689934    1.01286019128802    1.61790775963136
H           4.82674817625019    0.03604237223225    2.53024230163062
H          -3.11524824574743    0.71684316155485    2.92012795147140
H          -2.80609324332772   -1.03075231600623    2.82292679877415
H          -3.56359947232966    0.71928791821729    0.42130926651187
H          -4.65979892864734   -0.36032763200585    1.29153892816441
H          -3.28688221607830   -1.02448526298094    0.40132437045351
H          -2.52370677166514    2.52526334523245    1.72529282996268
H           0.11717962286082    3.57818422040854    0.58412357453936
H          -3.38378657369651    4.49535114695632    1.79874258330903
H          -0.82563834001796    7.97874769897682   -0.52916100191208
H           0.13369105558291    5.73737999376418   -0.29958776864109
H          -2.94634228827217    9.32946858484706   -0.58467708202563
H          -3.36795009068083    9.41966624621230    2.44345027716674
H          -4.02652537083264   11.39282395575137   -0.86783626341407
H          -5.05609816981290   14.66840799428699   -2.44290084362598
H          -5.51107216049220   12.98799168742089   -2.06225875102475
H          -3.79077194218653   13.42446539785724   -2.27903476187954
H          -5.65248424311701   18.82279267014764    1.38595602997745
H          -4.17346389869235   14.49032129478600    4.36406215242440
H          -5.00696100911169   18.18912519512802    5.18212994367828
H          -4.61039590357334   18.00499209843004    7.42272232431561
H          -3.56273817096297   14.51003509802235    7.42825723066175
H          -2.85232395317831   13.31023590303803    9.47245012630361
H          -2.84078180099340   14.47750658967619   11.64733274010485
H          -3.54081330506853   16.84009829148810   11.77448933582067
H          -4.24658319844477   18.03312009979895    9.74127834488855
