114
 SCF done       -190.216461333283          0.000782027438
C          -0.60993081879034    5.11580281573293    8.75232318694244
N          -0.91021630764613    4.33082809996974    7.67619246731970
C          -1.28796980528548    2.94195146490704    7.73060881800919
C          -2.72214557864439    2.76746741808204    8.22314487096387
C          -0.86864198276617    5.06444264068060    6.47820829580591
O          -1.09993011173444    4.57441210416420    5.37656315533307
C          -0.50720308630697    6.38705820398663    6.88721850462994
C          -0.35306405494815    6.38139225518990    8.31358549579095
C           0.03924968886843    7.71452819972039    8.72027891475071
O           0.28498502613422    8.20384244061361    9.80038951063748
N           0.10841798893808    8.43720047768157    7.50994515807839
C           0.42740647783351    9.84276944937367    7.49589315145730
C          -0.81918818676666   10.70851446594681    7.32784572488671
C          -0.21618176814159    7.66223884159191    6.42003207402558
C          -0.19990311967227    8.12082023451386    5.08037668467211
C          -0.56739520980006    7.29483946197262    4.07056837440329
N          -0.60511941447063    7.63859823064203    2.77076380434282
C          -0.77775803591708    6.65555596320847    1.71354316666726
C           0.41941238633274    5.70803369570442    1.64408638672838
C           0.37725536218741    4.82424959589093    0.39818940215121
N           1.61515048606886    4.06846503106536    0.34608647402477
S           2.69382208632424    4.97918891473137   -0.63011152166839
N           1.45674578122652    5.48025913222269   -1.71739763944846
C           0.26419470543927    5.69076890060975   -0.91600768004069
C           0.16414153151832    7.18088080470010   -0.58869065646579
C          -0.97342806985269    7.44881313049788    0.39517600350397
N          -1.04688186244530    8.84263626075705    0.78272554830290
S          -0.03540133518580    9.11316735058214    2.12053585105921
C          -1.59409856324282    9.84366430727985    0.05239352870196
C          -2.14355189737784    9.72753247899790   -1.17674256278176
C          -2.74867847394981   10.80963583027841   -1.87610356446526
S          -3.23943243749074   10.58655029084398   -3.53126701596299
C          -3.79946154677344   12.23155455578160   -3.66855858627817
C          -3.60947582989558   12.89623238261141   -2.45165058651512
C          -3.02047340773285   12.09560533351720   -1.45964473567581
C          -3.94945768534809   14.23344326457068   -2.19082383377829
N          -4.20525599356710   15.31763307703674   -1.91202608037699
C          -4.31326041197796   12.67843322038074   -4.90257391560708
C          -4.81320712662812   13.92154231672449   -5.15600022614505
C          -5.27071074134789   14.34486455327644   -6.42386737224063
C          -5.23811038711653   13.67871991718307   -7.63726215392631
C          -5.74843081684877   14.52523786843465   -8.64856397904510
C          -6.15879321154048   15.77571246751551   -7.97740925509296
C          -5.86447573177594   15.65494961934723   -6.65801173076395
C          -6.83033155514979   16.86184915320588   -8.55172728132452
N          -7.42749746901192   17.75501841009985   -8.95765471892644
C          -5.81444635599588   14.27033202704135  -10.00566308037946
C          -6.15155259423714   15.17823684458690  -11.03926042299843
C          -6.10007675088024   14.52527605853537  -12.26012962185805
C          -5.71872193493664   13.14859275563272  -12.00463120095908
C          -5.52386087261902   12.99007938258329  -10.66536510080996
C          -5.14092521050476   11.79339963032439  -10.05439279077102
N          -4.82435737023915   10.79210603474318   -9.58598021356558
C          -6.34947234031847   15.17185262557785  -13.50103622550775
N          -6.66189567870748   14.58554340898611  -14.70723452814870
C          -6.92695524362770   13.19403933168723  -14.98526540314238
C          -8.16398338165828   12.68244154345696  -14.25412991628773
C          -6.86314425691727   15.54423536464142  -15.72010198718146
O          -7.16416750841544   15.25137084405957  -16.86092025371080
C          -6.62077232065854   16.81126727584141  -15.07417723263401
C          -6.31557383960670   16.54987342348210  -13.71274059575003
C          -6.01201628476151   17.81172496620643  -13.07660738289511
O          -5.66252819029020   18.11080061456465  -11.95544335676097
N          -6.19739172271802   18.76680888099825  -14.10365147461074
C          -5.96717030962369   20.16807350174578  -13.85184747274946
C          -4.58979451956289   20.61322940429528  -14.33799436865234
C          -6.54814412144330   18.18325880549580  -15.29138728786884
C          -6.79308557210585   18.92243651878000  -16.49603722527441
C          -7.11857694968316   18.33955426357097  -17.65211335604204
H          -0.59250289446897    4.70666996966036    9.74491596991595
H          -0.59371907539179    2.40534742832305    8.38430917382642
H          -1.19265577545492    2.55594951568315    6.71199144965959
H          -2.83592374944330    3.17347426119673    9.22588579107425
H          -2.98172349947755    1.71267019532068    8.24125720020591
H          -3.40956951928089    3.28533643270099    7.55898733675843
H           1.15138277467316   10.04652483175329    6.70115881683846
H           0.89437977031587   10.05555750109773    8.46174747684820
H          -1.32674390314291   10.48146853587312    6.39284291242744
H          -0.54296866465261   11.75937123002772    7.33180013348602
H          -1.50845389402598   10.52659192314171    8.14861203330266
H           0.12278700232077    9.12875815672476    4.86201570108079
H          -0.87578689450696    6.27753731364733    4.28327583399354
H          -1.68144576103906    6.08108559480848    1.94724855021578
H           0.42634427899135    5.06866708616444    2.52731879809488
H           1.35239396455699    6.27386807393538    1.64089259152943
H          -0.46831732017859    4.13382003012398    0.47068464583561
H           1.49295482570022    3.12810418286439   -0.01574267986963
H           1.32153841110361    4.79534981708697   -2.45410521023097
H          -0.61714885970847    5.38754482969319   -1.49054778553323
H          -0.00176921820387    7.73475121599086   -1.51289308684369
H           1.11372559253780    7.51916460891759   -0.17276587096489
H          -1.93047794544797    7.18136429609519   -0.06558295491412
H          -1.56511430458313   10.79908267568001    0.55572541875770
H          -2.13432663852436    8.78195567480183   -1.69696342625585
H          -2.81335118930334   12.46159609160830   -0.47026326189182
H          -4.29365332110178   11.95062665080209   -5.70281316620332
H          -4.86760997460440   14.64674306857319   -4.35605828761827
H          -4.84800669548687   12.69617929901853   -7.81363830004292
H          -6.04337684072910   16.38536441293820   -5.89040205645434
H          -6.38768465304979   16.21314139573134  -10.89263692433059
H          -5.56661296611819   12.38169338481774  -12.73927396700603
H          -6.04808065226917   12.58879079431619  -14.74795398011783
H          -7.09121016525182   13.14423177808481  -16.06636673347201
H          -8.03883229295463   12.74521499901705  -13.17545854996757
H          -8.34507242223903   11.64543034002779  -14.52347485897106
H          -9.03291074391094   13.27220163228699  -14.53613607108014
H          -6.02912528268310   20.29239989288166  -12.76687023348623
H          -6.75746923801366   20.76071763289032  -14.32059842344574
H          -3.81669314681696   20.04606507705435  -13.82557201904096
H          -4.44682232492978   21.66842227879572  -14.12233925784826
H          -4.48299691997758   20.45540845967071  -15.40922388658925
H          -6.70653249456108   19.99842839942670  -16.43341877956543
H          -7.20952292503857   17.26976729229845  -17.73882063212286
H          -7.29973037230716   18.92343338617473  -18.53807846377360
