110
 SCF done       -183.817985274579          0.000918062250
C          -1.49101774846988    1.94073609635881    8.12684867393775
N          -1.51542871575459    3.28554451025079    8.32801278715391
C          -1.38726631476449    3.95128454129239    9.59991403166978
C          -2.66366094313209    3.83364069755445   10.42864615742318
C          -1.73901683115678    3.98330737728601    7.12113646536902
O          -1.80158029526236    5.19773034307921    7.05400056261045
C          -1.84361272022224    2.94319168208843    6.12970823331523
C          -1.68568569284799    1.68622315681864    6.79884061803120
C          -1.77735916588713    0.63682997051070    5.80488615662087
O          -1.71636712196792   -0.56990503877524    5.87984525985723
N          -1.98285051204277    1.33082720602437    4.59522281412167
C          -2.08225462819671    0.62187468431477    3.34341198229461
C          -0.76289509406906    0.63520401048027    2.57425934866023
C          -2.01651615650976    2.69740612523231    4.77470968436616
C          -2.19321886618529    3.62182913702379    3.71172653841938
C          -2.25134651342246    4.96210456136704    3.91725552264164
C          -2.38677426916122    5.93156210415291    2.88921301493723
S          -2.53104185626379    7.61635724543039    3.30892054706359
C          -2.58959223145406    8.09831926444421    1.64375787375274
C          -2.50964264931637    6.97241845356960    0.81022084926086
C          -2.40140857838496    5.76703873570459    1.51707566831667
C          -2.54881083784557    6.99455802830218   -0.59292054997481
N          -2.57942380469344    6.95726181328104   -1.74045879166394
C          -2.69059094532938    9.47204583221813    1.32457474817792
C          -2.58896436788013    9.99072901015784    0.07005267941291
C          -2.67682114248977   11.37705697583844   -0.19117677203007
N          -2.51117159941237   11.92537624983705   -1.44373582735182
C          -2.29321832456044   11.20836247226083   -2.67751535097596
C          -3.58025553849542   10.58718294771291   -3.21380332094506
C          -2.61831761698786   13.32400049564297   -1.42530763034528
O          -2.48912704896231   14.02221677675113   -2.41331774641433
C          -2.87748026767981   13.64625096351588   -0.04009686146357
C          -2.90646858322260   12.43285544277382    0.69124751086654
C          -3.17721827276770   12.75251382960766    2.07344574665621
O          -3.29135067776855   12.05798790123835    3.06594913104519
N          -3.31124437257515   14.15021474902994    2.08757855260723
C          -3.53675794274641   14.86322597126229    3.32069866516276
C          -2.25132452578025   15.48335313071764    3.86363790976705
C          -3.12419905306656   14.70114389395004    0.83802102355081
C          -3.19344907040933   16.08919534313403    0.57312914521588
C          -2.91375681964836   16.61101073293884   -0.65100158304771
C          -2.95187426014989   17.99190548343214   -0.96726304892029
S          -2.39265923567431   18.53276922846157   -2.52710928774994
C          -2.72360490542324   20.19242082428851   -2.14883203165708
C          -3.25743570381883   20.29756480877543   -0.85505685248268
C          -3.37503395148199   19.06353024789595   -0.20238077377794
C          -3.62795389721679   21.49434082854046   -0.22139229389475
N          -3.94443011775599   22.44275991829371    0.34427827740059
C          -2.42132278788930   21.19268116084400   -3.10198224402417
C          -2.71849985900504   22.51356667047483   -2.96923530117178
C          -2.35375663783110   23.47901352163879   -3.93784955665079
N          -2.67031021270071   24.81522308567125   -3.83196060404536
C          -3.37977338209401   25.44980037925743   -2.74684860180086
C          -2.48606602274507   25.67549693303222   -1.53012206918402
C          -2.17861294573914   25.56282183893118   -4.91465103366781
O          -2.34694735271309   26.76058602538842   -5.03237719387707
C          -1.50932123556326   24.58826488957935   -5.74816701258583
C          -1.64071710736465   23.31772576930421   -5.12259637157832
C          -0.96743962603489   22.34642209020267   -5.94872644062265
O          -0.80578838996606   21.14515941719347   -5.83677725128315
N          -0.45937317326463   23.09766258039504   -7.02489268929075
C           0.25152802334345   22.45785728425255   -8.10446301485987
C          -0.63864793851508   22.24947587107757   -9.32738972669112
C          -0.77924684820071   24.43026186947144   -6.91753038849604
C          -0.37284811000473   25.41974660884739   -7.87333080142770
C          -0.70753597724315   26.70794632775042   -7.77025548147789
H          -1.32672000061467    1.26175345678009    8.94299203712448
H          -1.18122882180839    5.00206645182203    9.37853221063830
H          -0.53880103508231    3.52520297755752   10.14414651053055
H          -3.49913388020257    4.27744430583852    9.89266616597919
H          -2.53936018828185    4.35491534208805   11.37365670634469
H          -2.89510584427168    2.79034381768350   10.63254370615709
H          -2.89048644415106    1.04833017283007    2.74233401522431
H          -2.34242689261656   -0.40881939346247    3.60112220142896
H          -0.45065587635428    1.65259798219838    2.34819423645307
H          -0.87324130723468    0.08649834387612    1.64296964521600
H           0.01430504659040    0.16025365070607    3.16767336248799
H          -2.28175411230475    3.22377313963906    2.71182044239494
H          -2.18106985664797    5.34308474047916    4.92765844126905
H          -2.32718350033202    4.81317719939815    1.02573268220974
H          -2.84206711922148   10.14241852841242    2.16109118290844
H          -2.41361173983274    9.33542115197141   -0.76902970365742
H          -1.52857203103199   10.44118702121313   -2.52766516830480
H          -1.91772137363550   11.94804493075857   -3.39039338857711
H          -3.98110379957519    9.85366413499734   -2.51823651653233
H          -3.37905905112740   10.09143342775991   -4.15901491788137
H          -4.32739423922974   11.36050236183046   -3.37612440437313
H          -3.91399509225872   14.12248446427479    4.03150560302642
H          -4.30497515491964   15.62695133633808    3.16854842056237
H          -1.51595616971625   14.70462772409562    4.05055593596540
H          -2.45655678874471   15.99909971509743    4.79777154040059
H          -1.83006673411086   16.19326491841680    3.15494080651377
H          -3.46608178953301   16.74203677811686    1.38927900459905
H          -2.62412601979924   15.94362756633561   -1.45199982352100
H          -3.76646953145752   18.97115737293268    0.79523033456141
H          -1.91126719281658   20.85483962934279   -3.99514224943328
H          -3.25300814277166   22.85908380030759   -2.09804650350545
H          -4.25293931467899   24.84924455325181   -2.47762580639003
H          -3.71956573675529   26.41423475950755   -3.13520169169289
H          -2.12363693846373   24.73199634225769   -1.12887952799520
H          -3.04930247926364   26.18591749704398   -0.75429259722194
H          -1.63215740821363   26.29005961522520   -1.80496279420790
H           0.57437565294220   21.48693411142349   -7.71765508379381
H           1.13706625548147   23.04577020335051   -8.36208405144887
H          -1.48923376065046   21.62586744946616   -9.06355416197984
H          -0.07491730222962   21.75419170075927  -10.11319133503642
H          -1.01037541386469   23.19905811383288   -9.70623706770455
H           0.23362602035612   25.07861332172795   -8.70112476554984
H          -1.31234016413514   27.06995868263029   -6.95572251570519
H          -0.38431535412781   27.42734551247408   -8.50277279090228
