92
 SCF done       -154.442911850152          0.000328912169
C          -7.35763057129559   -0.15957921477019   -2.96898884614113
N          -6.15270763970089    0.30155439079451   -3.39748569896764
C          -5.11313196605172   -0.48859415279955   -4.00723310376789
C          -4.37413461602218   -1.33635396934637   -2.97502843316527
C          -5.99038759826689    1.67824850027928   -3.10318315356353
O          -4.99676695956104    2.31256661109981   -3.39205409492121
C          -7.22670434614463    2.03430222259139   -2.45217781347998
C          -8.05014016950491    0.86652613154776   -2.38951433861191
C          -9.28177041538069    1.24277268787387   -1.73073592581492
O         -10.27969262579936    0.61946373215807   -1.44568179702373
N          -9.11450818599318    2.61587127219321   -1.42644439590384
C         -10.20460675095818    3.34025551650987   -0.82060290214472
C         -10.92512522890444    4.23670149949867   -1.82475166726300
C          -7.89449442737559    3.09114355159166   -1.85768775359942
C          -7.31103107305505    4.38934206597904   -1.74237244295903
C          -7.75315967885526    5.49288902444479   -1.10693149085811
C          -7.00545483125876    6.72516702393478   -1.04462265255043
C          -5.96949539026377    7.07876220660409   -1.92379665137066
N          -5.26985928671326    8.18091428404514   -1.78402408837759
C          -5.58135199360562    8.98997024118811   -0.77650869425969
N          -6.59111581026178    8.79994985514307    0.06696001386588
C          -7.28616101875369    7.69324126052696   -0.06827322612896
C          -4.72164047342243   10.16946475898360   -0.57589116702802
N          -4.14334463584895   10.69195730064575   -1.65204810314734
C          -3.33415953774171   11.71695766893785   -1.44991980290382
C          -3.06342773188178   12.21452360144660   -0.18640819524912
C          -3.72094557290105   11.59705652565638    0.88513556993861
N          -4.56547914876186   10.58966635848184    0.66882856458139
C          -3.52885828135804   11.97790719906924    2.27464062781107
C          -2.42562450958177   12.56342749425414    2.75158113062714
C          -2.22968925309984   12.85666392677112    4.16283341082261
N          -3.27658568750873   12.76565840132283    4.98492848616625
C          -3.05490966091199   13.03093671298984    6.26016131391606
C          -1.80265393659364   13.36364331492347    6.74564659480188
C          -0.75579236648074   13.41859507109103    5.81400453261614
N          -0.99453946810182   13.17947746213252    4.52320310020631
C           0.60020540629518   13.71560751677014    6.22322610481807
C           1.61686262908554   13.75133933565526    5.35250001908884
C           3.01074860016890   13.95087108164966    5.69093551201655
C           3.57908575823803   14.86366654458445    6.65421558429347
C           2.92557649244860   15.93512660337857    7.29175882042076
O           1.62822521681050   16.13063355317445    6.94725345877633
C           0.93918895031014   17.30897154186084    7.31231567933217
C          -0.39744702630038   17.28471205201475    6.58601073527969
C           3.68166189866810   16.68159568256042    8.19051152086077
C           5.04863674832758   16.40897372369608    8.41816512352310
C           5.72718919366111   15.39448202613500    7.72394354507651
C           4.96871273795121   14.64269657946169    6.83696349378250
S           5.53607409662925   13.37231920520285    5.76573207161326
C           3.95832826285488   13.15587252047931    5.12590565227693
O           7.05098125171656   15.29745066763799    8.01037438596241
C           7.82468208264052   14.21838743631485    7.52335170275474
C           9.19555352761019   14.31521062961521    8.17496544551651
C           5.62946522036587   17.28218292729203    9.38582841405011
C           4.75429893395033   18.17491314431040    9.88168894945450
S           3.16936464792411   18.01929306177512    9.20540639979196
H          -7.63877975952024   -1.18654156323688   -3.11376691650937
H          -4.42097875010590    0.21838801520228   -4.47257570628012
H          -5.55169911063469   -1.12552228331661   -4.78112806831205
H          -3.92358427800928   -0.69613437578535   -2.22059385972599
H          -3.58864557890438   -1.90853805587656   -3.46058560214564
H          -5.05704704099410   -2.02607028441937   -2.48372543163401
H          -9.84155868871353    3.91019930793019    0.03867574444799
H         -10.89690121769068    2.57400960767014   -0.45720148540855
H         -10.24527584599416    4.96295001074159   -2.26459750732584
H         -11.73490747746485    4.76689847839675   -1.33081025204232
H         -11.34448089007427    3.62997345661234   -2.62358785623117
H          -6.34432935917723    4.42746840510106   -2.22908023973168
H          -8.68491484607855    5.50222107951331   -0.56168771185742
H          -5.70687166642157    6.46083893296953   -2.77263121568739
H          -8.09670894546385    7.55492379253620    0.63820496133065
H          -2.88673917503099   12.14475529780746   -2.33853087347023
H          -2.39629095376371   13.04684989131244   -0.03648122877337
H          -4.32030141465785   11.69356909316463    2.95266881258132
H          -1.57907639577450   12.80205510213313    2.12360020988629
H          -3.91860725581122   12.96520310417346    6.91093839184771
H          -1.63283444195633   13.56525727770648    7.79122418495965
H           0.75556883098431   13.89083509611524    7.27675948522699
H           1.40470720361490   13.51067640973681    4.31885700850143
H           1.51491970936100   18.19461327496956    7.01634689092646
H           0.77710177125839   17.34134910142104    8.39736018479870
H          -0.23487705216656   17.22869445567968    5.51318086867481
H          -0.95896274933739   18.18450589621038    6.81891232074238
H          -0.97251574665805   16.41440391286276    6.88994200391757
H           3.80408061433337   12.39322664460927    4.38736139671372
H           7.92265664233355   14.28042714215500    6.43223864805194
H           7.35010363084832   13.26359149514102    7.78165545917575
H           9.66287947772871   15.26160864542330    7.91727807757469
H           9.82403648640122   13.50004033170101    7.82896468975110
H           9.09870171356646   14.25848555722408    9.25581344867090
H           6.66190277996625   17.21241572609094    9.67274023879718
H           4.91927599873407   18.93726564896869   10.61722140363243
