103
 SCF done       -165.038353552033          0.000919098571
C          -4.48977788630173   -0.85172687264690    2.89401079069173
N          -4.31214878308987    0.12539497343112    3.82701029178953
C          -4.56891004211869   -0.00021918342967    5.23882387938820
C          -6.06475391768976   -0.00340846286367    5.54401318522948
C          -3.88725424190773    1.33096455562584    3.23446161092602
O          -3.66134022537457    2.34584050302501    3.88081945935833
C          -3.80557328750407    1.02628590868470    1.83387572313148
C          -4.18732180626236   -0.34298068242790    1.66302318344789
C          -4.09934327951195   -0.65947181625068    0.25161607426691
O          -4.31567747251898   -1.67565436817764   -0.37281084879906
N          -3.65995591510529    0.53730199274343   -0.34090793491569
C          -3.49766830856534    0.64769438213584   -1.76903367001403
C          -4.68313725363279    1.35425610464317   -2.42353957567299
C          -3.48597009677513    1.55030978628115    0.58151297673514
C          -3.04844295919758    2.84916887961590    0.25446405510240
C          -2.92557182041764    3.81259042970629    1.21653334642750
C          -2.50403781787264    5.12979525950311    1.02172968448097
S          -2.03671543414599    5.77945853770870   -0.51960348031620
C          -1.73770311835161    7.36694902974965    0.12717225577974
C          -1.93605162601298    7.37668140247509    1.52328761215554
C          -2.38542166081587    6.12086791727529    2.02132779534457
C          -2.65537757859065    5.96298783774572    3.38522593854021
C          -2.44446768920317    7.00082103738485    4.26808608627658
C          -2.74330131505832    6.83078145894243    5.68717210309350
C          -2.79205464776700    5.66678659466060    6.32492948174709
C          -1.92728863862079    8.23881057819570    3.78383658180506
C          -1.61871830703472    9.35637470971439    4.73321910021427
C          -1.68543344714191    8.40937225497726    2.44459430201346
C          -1.38552638939181    8.38418476092207   -0.78019623931855
C          -1.48043617232377    9.72885606586806   -0.57405662879472
C          -1.11268850540107   10.68963535398545   -1.53822247485930
O          -0.52765402683333   10.35801711103720   -2.70885009097115
C          -0.31561769291693   11.49846239141993   -3.42026908863523
C          -0.77213415618888   12.58956722820162   -2.69768443408895
C          -1.27666026651995   12.08240095594161   -1.48801714956229
C          -1.83179005317821   12.80023407462068   -0.42349250477080
N          -2.28102865013279   13.38399223932635    0.45710815691970
C           0.31741531577639   11.40078391527706   -4.68174055631485
C           0.50035843542305   12.44971994631866   -5.52971746430131
C           1.17031396770891   12.37834056607393   -6.76275736544171
C           1.34341202709499   13.39898851197406   -7.71470468888011
C           2.11305665776778   12.99349992948532   -8.84619919337230
C           2.39842315225307   13.94126418033458   -9.84671016773983
C           1.90459756614957   15.21261957127747   -9.74310319837819
C           1.11363797558274   15.59646760690346   -8.64738367221831
C           0.84160289123114   14.71136978536815   -7.64236209094826
C           2.53906510558953   11.64798715761614   -8.76987934012671
S           1.96697374662361   10.92999793229339   -7.29215241121662
C           3.26873901986934   10.88606644808410   -9.70393293013209
S           3.35348515347668   11.36153800751285  -11.37661312170139
C           4.28989783924464    9.98321264256206  -11.83759628553429
C           4.54629571366468    9.17616149255453  -10.72667799902729
C           3.97153352951788    9.67617034657774   -9.51804799470590
C           4.19905980121005    8.97329167916470   -8.32626365385366
C           4.93904193727300    7.81230236686234   -8.30956335603861
C           5.15524238948815    7.10353771692955   -7.05070328987190
C           5.22322692330690    7.67830257427061   -5.85638096402324
C           5.48403812662381    7.29814436755369   -9.52440629695136
C           6.29610524355614    6.03871713349570   -9.51647727515041
C           5.29063084650337    7.97935088789737  -10.69330417484367
C           4.71068929459695    9.78213707246464  -13.18699844648145
C           4.44552129097202   10.60408656251001  -14.20480297255023
H          -4.80955636578698   -1.83669425231795    3.17837187583953
H          -4.09332456379999    0.86160610258494    5.71543771160702
H          -4.10283792869369   -0.91849712715332    5.61009959684764
H          -6.52126135933755    0.91473357784759    5.18213327434766
H          -6.22342733530231   -0.07300663796252    6.61672544716219
H          -6.55313975172159   -0.84782356539346    5.06248016716429
H          -3.42857455851617   -0.37731524240882   -2.14486022563820
H          -2.56262329546189    1.16984300253939   -1.99282127680970
H          -5.59630688608052    0.79417086920977   -2.23701082612165
H          -4.52774777712118    1.41973372264317   -3.49715715143540
H          -4.80566109408347    2.35887873719797   -2.02417361181840
H          -2.80684936403638    3.08264515701690   -0.77298828624940
H          -3.17880512369471    3.54634732368139    2.23330976839812
H          -3.03685908373261    5.02107434827888    3.74376328013006
H          -2.93162530933496    7.73963627315440    6.24195509275186
H          -2.59268304452693    4.72725563245668    5.83855017985140
H          -3.02951940017481    5.61612667897414    7.37403779239062
H          -0.97256605819112    9.01089947482489    5.53882990033496
H          -2.53467667803802    9.74690015711921    5.17676667699069
H          -1.12167094187207   10.17181863358974    4.21354896170640
H          -1.26442064815025    9.34069772541402    2.10164055536887
H          -1.06439698140849    8.05225634286907   -1.76003909395332
H          -1.90282496169748   10.13205521467871    0.33274090667461
H          -0.73888622897377   13.61876557515777   -2.98969715621005
H           0.66629669894907   10.41593561040918   -4.96058631728082
H           0.10994626717804   13.41911679196691   -5.25451077436227
H           3.01664193419218   13.67340429778937  -10.68739792361908
H           2.12643239407194   15.93751573245153  -10.51162713701667
H           0.72896949451052   16.60414506640824   -8.60071284970775
H           0.24585121797311   15.01024958419946   -6.79383660785543
H           3.78678268558344    9.33879939828483   -7.40126052196360
H           5.27518975338472    6.03133104898087   -7.12495003339062
H           5.14801053839857    8.74474519253142   -5.72483922348418
H           5.37490025655269    7.09976170981593   -4.96122179619324
H           5.67830220822382    5.18361261560524   -9.24179888516967
H           7.11128888361111    6.11147433615052   -8.79797556892611
H           6.71688266817156    5.85101957035305  -10.50118926502281
H           5.72009907227566    7.60327547886679  -11.60992145263929
H           5.28701904452430    8.88345027366196  -13.36137147861160
H           3.87466677432446   11.50717966418738  -14.06524274038674
H           4.79178538673308   10.39649457320430  -15.20111162808867
