106
 SCF done       -186.536534066549          0.000622626090
C          -0.92070276671610   -1.84794463891672    0.52943272173463
N          -2.11502617214123   -1.48077432190476   -0.00428585364491
C          -3.08059472468769   -2.36698591109987   -0.60533203329259
C          -3.85538813616590   -3.15180630652544    0.44974506373099
C          -2.34592980516563   -0.09675201951537    0.15429054827030
O          -3.35002631804356    0.46273311114773   -0.24519420973488
C          -1.16661513891426    0.37930840356070    0.83667634105329
C          -0.30586562859435   -0.74351819102580    1.05083155961450
C           0.88370028173222   -0.27041715504273    1.73247727086143
O           1.87766953011526   -0.83441074412310    2.12744523508067
N           0.65857574224166    1.11390887536429    1.88662359968342
C           1.65115207182774    1.96767931555483    2.49354538863772
C           2.46410708091707    2.72645310191856    1.44756504174532
C          -0.54716440391506    1.50857268318316    1.35643489598745
C          -1.01930192816482    2.84941450032545    1.38551334602620
C          -2.21548834549306    3.21350410912117    0.86782622001188
C          -2.69267623535411    4.56512512172610    0.91371920736456
C          -3.97206077021983    4.90460565076850    0.43405555292316
N          -4.41669476003266    6.13655268588094    0.43530006914152
C          -3.62269864136039    7.09913315816445    0.93387240403368
C          -2.35018718231650    6.75725798608180    1.44334571237789
N          -1.90331211438504    5.52660219392438    1.42330384979465
C          -4.08729369057631    8.45778476297654    0.94861804108996
N          -5.35056049829969    8.86134030205689    0.60791449659732
C          -6.44714948407129    8.05962304719753    0.11816218553010
C          -6.32657591496733    7.80209508558532   -1.38033319006309
C          -5.50223454317997   10.25977804946562    0.72630823228974
O          -6.53191839832441   10.85450158387437    0.48672412614253
C          -4.21160485808718   10.71447669788946    1.18573996117404
C          -3.36518551315495    9.59584974292006    1.32546137966395
C          -2.08537439796656   10.09158167240982    1.79608097019196
O          -1.05427655025781    9.52560746117606    2.09515404028460
N          -2.24847877804133   11.48854116062558    1.88958719034104
C          -1.13827782879892   12.30834029487535    2.31801293799871
C          -0.38258439303295   12.91117138852082    1.13642014969778
C          -3.51492010032865   11.87808241503379    1.52225732036941
C          -4.12596758168807   13.14990337150158    1.45897242331854
C          -3.56574504155335   14.38062770286023    1.63656545708449
C          -4.18152619731220   15.64761648914020    1.54391421327330
N          -5.48899595022514   16.01354407250673    1.33679279371811
C          -6.66786672284398   15.18232070270159    1.23969743463615
C          -7.07429407893479   14.60553006418995    2.59277341177856
C          -5.63521338012160   17.41834746457463    1.30577450013779
O          -6.69684372399096   17.97571267435664    1.13665603642008
C          -4.29387106707495   17.93514315411664    1.49899043152362
C          -3.43779132385019   16.83359436393811    1.64307902856600
C          -2.08478513697817   17.32052522766863    1.82147455752367
O          -1.03243845529617   16.73989855591931    1.98536948338943
N          -2.22056528611426   18.71838958805240    1.77701991394634
C          -1.07053145889119   19.58695968709928    1.87040648713269
C          -0.63479508968513   20.10337567042977    0.50174471298559
C          -3.52729906589489   19.10778356821188    1.58418463014307
C          -3.94300900367119   20.44976816217097    1.51534010295517
C          -5.25164863591561   20.81047833671175    1.34408909355365
C          -5.71119843473790   22.14461908762796    1.27456699679027
C          -7.04668163464107   22.50529894063988    1.14478610457200
C          -7.28272111286566   23.91265518844236    1.09569480495594
C          -8.49074764525035   24.55427553033697    0.97685805650079
C          -9.73776233742025   23.90612889619348    0.87771327153720
N         -10.78940955696902   23.45651355121981    0.79266808441563
C          -8.56230490927266   25.96283819697728    0.94500207971283
N          -8.62562278292668   27.10751217232551    0.91768547010094
S          -5.78342644119089   24.81654737988132    1.21062497087799
C          -4.81079319304799   23.30797776830423    1.33087461036981
O          -3.61640386161151   23.33822375969596    1.43486322197767
C          -8.08990746343187   21.56443008472030    1.07944110147612
N          -8.91968529302325   20.77421985967975    1.03297682580929
H          -0.58858112191498   -2.86904735306991    0.49329821159311
H          -2.56444378698846   -3.04971527671587   -1.28645887428612
H          -3.76548334494250   -1.73668950049966   -1.17880432796898
H          -3.18177990632108   -3.76363668958114    1.04568849374759
H          -4.58165036835705   -3.79994700764253   -0.03233589735351
H          -4.38269855011495   -2.46886851694564    1.11127640600869
H           2.31094131384711    1.30542446261906    3.06130782356356
H           1.16462032508951    2.66055851814707    3.18532738588990
H           2.97993272659674    2.02412612138523    0.79725699366762
H           3.20380487536687    3.35110817620224    1.94030877431216
H           1.82260969883258    3.35873011745589    0.83787954610183
H          -0.40554638994538    3.61085155745123    1.84448426569388
H          -2.86255152848901    2.48213824419453    0.40406682352871
H          -4.63655127767838    4.15243233293195    0.03038706952203
H          -1.69001791788464    7.50124642864950    1.86663529226747
H          -7.35461732023204    8.63471747670452    0.32272595159759
H          -6.47106356323141    7.11444321488331    0.66111809788918
H          -6.27466848224959    8.74429541823325   -1.92083162844907
H          -7.19513006846970    7.24926156582764   -1.72537922354857
H          -5.43450663244849    7.21825322057368   -1.59029856007596
H          -0.46877801462843   11.64191148076216    2.87013658375932
H          -1.49853220426572   13.08186538195105    2.99929736704543
H           0.09020762850419   12.12147658791939    0.55765273561344
H           0.38440143311883   13.58814284157842    1.50098972350842
H          -1.04964434488824   13.46687210182238    0.48147948811585
H          -5.17179011205920   13.06720141550427    1.20301956960641
H          -2.51007247232123   14.47049327160588    1.84518683486089
H          -6.51025276955130   14.39351172983098    0.50087311612778
H          -7.46135657036191   15.84153980357077    0.87488658966094
H          -6.26617562829386   14.02915640992452    3.03712443923737
H          -7.93431859678569   13.95506182455002    2.46431053606421
H          -7.34282132249903   15.40930191678800    3.27389006578007
H          -0.27130620150777   18.98120110602091    2.30655580012546
H          -1.29278668783835   20.41809164557895    2.54472210458463
H          -0.39662162984058   19.26893689174715   -0.15360399065893
H           0.25017665362207   20.72365191222529    0.61066689424533
H          -1.41986822702270   20.69686424831588    0.03923359049562
H          -3.19009647269173   21.21746987487462    1.61110465870302
H          -6.01096796169304   20.04178249900594    1.25588118531982
