104
 SCF done       -190.195836916951          0.000683566113
C           2.62384901223884   -0.20536369306827    0.55296087825076
N           2.20624475206978    0.41741532618045   -0.57537927452745
C           2.38476733764462   -0.05900685925016   -1.92462422911640
C           3.81389114065745    0.16520169162586   -2.41147595126482
C           1.62122395713704    1.67354311462658   -0.28412636714673
O           1.17472425394142    2.41290990820899   -1.13783181510782
C           1.70520596978363    1.77307275604714    1.15407123095295
C           2.33324507559250    0.58543288077256    1.63429400891024
C           2.41567851811293    0.67372647805199    3.08005390750096
O           2.85401206635775   -0.07687799435863    3.92003637866662
N           1.82354140097985    1.91827002300190    3.37752748215756
C           1.75707727323285    2.39987687402009    4.73634679454479
C           2.86659157595346    3.40419872017318    5.03909789932575
C           1.40236628646037    2.58268734367411    2.24778434763949
C           0.77740102291622    3.85175345031774    2.27139350234630
C           0.35480511945186    4.48526593965952    1.14105077032665
C          -0.26135706551763    5.75749506577498    1.11513420269055
C          -0.71057267209592    6.40481957983959   -0.02009019525727
C          -1.23883095213994    7.67388420294672    0.33846798437105
C          -1.10331820847461    7.77274187774108    1.80747548123270
C          -0.52724308903243    6.62929203218512    2.25542191299387
C          -1.53178918096629    8.82606395692465    2.62518343599949
N          -1.88981677956385    9.65686193671993    3.33304629610481
C          -1.75486982168068    8.64412551446954   -0.49014287326088
C          -2.18155721864861    9.95047552666091   -0.11392427549060
C          -2.61657591528530   10.62578824191525   -1.23351934708790
C          -2.49799425432271    9.72520310581841   -2.37133290959313
C          -1.96648812694419    8.54927205737452   -1.94449095101291
C          -1.69348339350768    7.44832800905270   -2.76376244824021
N          -1.48313644763390    6.56327879341781   -3.46502996819823
C          -3.09381392160370   11.97029581175704   -1.30191036840019
C          -2.77764609848055   12.92794970808772   -0.30433507176376
C          -3.31373559815534   14.26577715955578   -0.33562226869651
N          -2.97663756977162   15.15243127519935    0.62286950871642
C          -2.17875019702954   14.77709039925632    1.58348555694635
C          -1.60002641659723   13.46043625099151    1.58773735289203
N          -1.90166243854760   12.59532433597377    0.65527446892089
C          -0.63849888595462   13.10989111150681    2.56933265665919
N           0.14780154380782   12.86746931051770    3.36567990853903
C          -1.83623834756092   15.70541463743593    2.60073977328209
N          -1.53859427678313   16.43111278766595    3.43468568999979
C          -4.16273716843078   14.69489695726199   -1.36484085828178
C          -4.44340558397476   13.77456899995482   -2.37840294432701
C          -3.90790182285203   12.43030716990538   -2.35722299614316
N          -4.33709178239912   11.72475120776466   -3.40853895083971
S          -5.29360281118641   12.64103887818925   -4.30679178192699
N          -5.24398826163568   13.97495000474685   -3.43172441148949
C          -4.73447351777168   16.04146844707518   -1.37372134054494
C          -4.60244324752865   16.87200740874549   -2.48585383607815
F          -3.89640320977409   16.44943466920883   -3.54389737366135
C          -5.14150627425816   18.14846150251449   -2.49971255059374
F          -4.95055223145672   18.90953935211875   -3.58785040457682
C          -5.84088682841341   18.66517072678395   -1.40664110128837
C          -5.96976363912336   17.82657773063517   -0.29694706052857
C          -5.43290849767432   16.54873117429786   -0.27874322347969
F          -5.64470124803015   15.76699177353836    0.78857167118781
F          -6.66412177299461   18.24219314918776    0.77228431538561
C          -6.41720366575674   20.01659886717638   -1.42664661366047
C          -7.13174638595982   20.45945959140989   -2.53344945488391
C          -7.68405044013916   21.72973718388261   -2.56359698738408
C          -8.52214226739466   22.12916321537888   -3.74672868965135
C         -10.00477897881296   21.90714155348120   -3.44519641125395
C          -7.51520945407124   22.57535642985728   -1.46393969201145
C          -6.79665063512154   22.13794586853707   -0.34136784398047
C          -6.25798000418230   20.86412561641465   -0.33324822045587
C          -6.63477345589076   23.08460227542297    0.81962468827759
C          -5.68742538039395   22.62285448057363    1.91949451934412
C          -8.09800622167250   23.92935039750675   -1.44528073339833
C          -7.69269638252764   24.93402029816025   -2.20748476645165
C          -8.27211787812821   26.30752636866237   -2.17472009216339
H           3.09258006822966   -1.17140973112945    0.51466926340726
H           1.68631519198926    0.50471198571424   -2.54867423648922
H           2.12881840115514   -1.12145050539184   -1.96522734336088
H           4.05420321825770    1.22526499268606   -2.38889572088956
H           3.91560164036479   -0.19245922986307   -3.43198900798413
H           4.52331847461955   -0.36720963290574   -1.78161007365181
H           1.87804755093884    1.51955222094641    5.37382168385392
H           0.77161405687033    2.83542298909150    4.92375937043081
H           3.83741425568631    2.93595830594504    4.89766108214682
H           2.78953714434632    3.73808348975950    6.07006413711523
H           2.80265193640546    4.27044120929490    4.38405364484868
H           0.63572086779394    4.31847710589282    3.23501273472690
H           0.49238789940786    4.00344266001097    0.18183662825035
H          -0.65395084996633    6.02012669330603   -1.01971950794763
H          -0.30421189152324    6.40365100131875    3.28147959540037
H          -2.17022669969168   10.33007255423388    0.88666738590772
H          -2.77770574920185    9.97784252479580   -3.37573606443881
H          -7.28042527056189   19.80016997617739   -3.37535331532945
H          -8.23529113955031   21.52935661294640   -4.61146999841575
H          -8.36289895673142   23.17827400233154   -3.99052061736559
H         -10.18971692669882   20.86552699167883   -3.19143525472037
H         -10.61122673645808   22.16782304637573   -4.30946598314143
H         -10.31395482989273   22.52578749883429   -2.60596685500813
H          -5.69002351928176   20.52179836940433    0.51523187494243
H          -7.62368069971857   23.25965133817819    1.25611525573189
H          -6.28899259751098   24.04596347680370    0.42800491879166
H          -6.05137792560614   21.71610846421441    2.39641806163199
H          -5.61091454425944   23.39588066323522    2.68103164586661
H          -4.69184283803759   22.43918701301019    1.52197785306619
H          -8.88890435283993   24.08844059835302   -0.72031176918316
H          -6.87750054045907   24.78582131145540   -2.90503178110960
H          -9.08232257479110   26.37372833866801   -1.45254437304938
H          -8.65453501483389   26.57814927091415   -3.15890274556593
H          -7.50446743081651   27.03484444677793   -1.91104045922783
