112
 SCF done       -188.146108907825          0.000673910138
C           3.55042361314612   -0.06170366647469    0.80237820463673
N           3.28058509312874    0.65404183614772   -0.31749090023383
C           3.58699566084074    0.26275646097361   -1.67059372544877
C           2.56898048094104   -0.74000028218737   -2.20757974079663
C           2.57520577246932    1.84299165855334   -0.01234188001306
O           2.22319725303069    2.64141594226119   -0.85841000805278
C           2.43771530864474    1.80845790911837    1.42293589546149
C           3.05752527525212    0.60923860523596    1.88990750032092
C           2.93996775507445    0.57657976356149    3.33458417555500
O           3.30339413112663   -0.22410118997255    4.16591252362227
N           2.26439213956113    1.77238588401829    3.64733995930304
C           1.90065856128989    2.08337477959004    5.00812368968858
C           0.42961058996381    1.78345975459797    5.28737898626329
C           1.95520180636500    2.51103549721470    2.52494871655187
C           1.28768167352624    3.75676480429478    2.56797096154465
C           0.93138885100651    4.44067035906488    1.44382992654514
C           0.26407432376767    5.68662110176516    1.43670808280759
C          -0.18438935255062    6.34773934848871    0.30427517633575
C          -0.81392591993522    7.55780912153523    0.68330237166433
C          -0.71246423118456    7.62898612335180    2.15205474901149
C          -0.07743181061248    6.50704676748613    2.58693515052576
C          -1.15429734625937    8.66227819727949    2.98436498146650
N          -1.48672550385385    9.49117965688635    3.70853352103523
C          -1.42410418493250    8.49542566097439   -0.13047070801061
C          -2.06990825260154    9.68434210054869    0.27219010027066
C          -2.54399719974955   10.34725701320129   -0.84966650171430
C          -2.19662610929267    9.55036707403612   -2.01689271977711
C          -1.53007137466796    8.44240591964125   -1.60371501670898
C          -1.04264693945131    7.44215199551268   -2.45181024286811
N          -0.66299519625826    6.64369034656477   -3.18521324653007
C          -3.22857948306241   11.57382658461521   -0.90677779918797
S          -3.75433053161923   12.25601667252180   -2.40922720500183
C          -4.38321599324807   13.67284753013856   -1.60816962263254
C          -4.23751810937906   13.59034258056783   -0.22177477031574
C          -3.56536925231799   12.42156789961980    0.16885548849927
O          -3.20506275100122   12.05720268611489    1.40985695313238
C          -2.99607811177644   13.08911038913697    2.36273862636892
C          -4.28387660938156   13.58497898701865    3.01782545994489
C          -5.39236258829538   13.82773585409482    1.99307160021343
C          -4.90137674861446   14.54260434527164    0.73115445353062
C          -4.94546882708757   14.70152583957955   -2.39477208833302
C          -5.21143549572350   16.01765192326018   -2.05380382009917
C          -5.75728452172562   16.68723188232158   -3.17395319901226
C          -5.84142524177913   15.69079867264825   -4.25574298750399
C          -5.34377381132171   14.51873336206920   -3.78287922694149
C          -6.42066980111060   15.86019907248384   -5.51974184953368
N          -6.92386208350262   15.93217485192231   -6.54941503769126
C          -6.13668219272882   18.01574185801450   -3.24981552491969
C          -6.55164739573791   18.73322881975703   -4.39506774337034
C          -6.89608487206549   20.02641941797570   -4.02872369218741
C          -6.68101560410296   20.14770066048634   -2.59809261356480
C          -6.20807886179672   18.96050953458633   -2.12575490526503
C          -5.89098669071555   18.70062426287918   -0.79022558883342
N          -5.63940019080664   18.51151735884122    0.31579635379665
C          -7.35647570040945   20.99697603153641   -4.95672135962760
N          -8.05563043642664   22.14965008325579   -4.68628326956012
C          -8.48962306679747   22.65581168688052   -3.40624528143265
C          -7.46359411228115   23.61253107676677   -2.80240427771555
C          -8.39568405473686   22.85007396859352   -5.85908797137296
O          -9.03024055628362   23.88588935135132   -5.85286580559087
C          -7.83811652767013   22.05527904108622   -6.92865075211952
C          -7.21238602587841   20.92526644645901   -6.34487702977157
C          -6.61230920333819   20.15186531016235   -7.40950690570036
O          -5.94461827627611   19.14117227241071   -7.42183812981181
N          -6.95993572702945   20.85859248806598   -8.58512708860461
C          -6.52262941096886   20.39246853804194   -9.87836206733280
C          -5.30098717064084   21.16082922389636  -10.37671345296628
C          -7.67886886985742   21.98930712399389   -8.31062202377246
C          -8.16449225721790   22.88566037355367   -9.31909701706633
C          -8.84735492790260   23.99739255540727   -9.03426571798136
H           4.08209152598076   -0.99396667687378    0.75159335604917
H           4.59465489161633   -0.16143130347573   -1.69954627812171
H           3.56133066432710    1.17500063182136   -2.27265911204994
H           2.55916554890332   -1.64159443627877   -1.59869507965876
H           2.82073977049903   -1.00995680067923   -3.22920994591148
H           1.57426364369130   -0.30127482225719   -2.19844595558546
H           2.13337743149042    3.13071634153089    5.22176308436646
H           2.52972139244081    1.44904348497530    5.63912242838669
H          -0.21947453271706    2.36766129335207    4.63846433245424
H           0.19517898773327    2.01872082191457    6.32193981613832
H           0.22861655245515    0.72871142954084    5.11679249417707
H           1.05369861682884    4.16309099498478    3.54107892573861
H           1.15656979336351    4.01498058429091    0.47481240716733
H          -0.08037143995728    5.99169923802547   -0.70204197127115
H           0.14734418289813    6.27540434206963    3.61151309580017
H          -2.18133295343210   10.01528882803994    1.28334994137452
H          -2.43911030211306    9.81663788684194   -3.02948149013727
H          -2.46537539465443   13.91828541731919    1.88069567923161
H          -2.33901186297401   12.63995254789585    3.11169226488497
H          -4.05186423525914   14.50986582639480    3.54801037738634
H          -4.62903695298042   12.85201081368310    3.74785604723482
H          -6.17442435352331   14.42834214714187    2.45964072971445
H          -5.83945491756118   12.87338938904587    1.70448664870906
H          -4.23618945650955   15.36737658203504    1.00130057670565
H          -5.76278296590490   14.97740585297844    0.22097492590205
H          -4.97146241015996   16.49927304225760   -1.12896487826324
H          -5.27522572204038   13.58846645707182   -4.31624819498299
H          -6.58364462765630   18.33518238010213   -5.38949607805192
H          -6.81880987870005   21.02887089687957   -2.00244950785366
H          -8.70419622605496   21.81711246312846   -2.74097666744186
H          -9.41853116519722   23.20437173363938   -3.59095043255762
H          -6.48840748132237   23.13904788755493   -2.70854532303678
H          -7.79414965673917   23.93931068064737   -1.82009646215700
H          -7.35907423819851   24.48505674547543   -3.44240567793477
H          -7.34739541406995   20.46428011974492  -10.59262787903554
H          -6.26238606317088   19.33851565639514   -9.74492685069342
H          -5.51888120624122   22.22219555297846  -10.47540594294178
H          -4.99399327905098   20.77419028539121  -11.34449782606196
H          -4.47737655923112   21.03994319898848   -9.67745608937728
H          -7.95823435994422   22.62048395403603  -10.34682018641229
H          -9.06657591388001   24.28134448070619   -8.01844772370258
H          -9.20416220771161   24.64631889002003   -9.81535467118464
