86
 SCF done       -144.248451356343          0.000876813063
C           0.21795316859714   -0.97133190750284    2.69849404303214
N           0.12824776313777   -0.07820725060199    3.71896451234785
C           0.46737153914851   -0.33540249797460    5.09610289914948
C          -0.57597944404948   -1.21608494089844    5.77847022129330
C          -0.40874318162138    1.15750401555975    3.27982366689066
O          -0.58140047028310    2.11114908242282    4.01049371623611
C          -0.64039402898714    0.94682943628732    1.87170260528349
C          -0.23847033169759   -0.38727078063976    1.55016201204753
C          -0.46146563006449   -0.57597661450195    0.13382060259777
O          -0.27703164244329   -1.51687445237445   -0.60481254571871
N          -0.98082490863958    0.66493640870202   -0.30984111161558
C          -1.35495495755259    0.80842264580487   -1.69557226825796
C          -2.86170591332485    0.66300137005708   -1.90004892402077
C          -1.09282967646713    1.57268121414600    0.72179451905127
C          -1.54319370631720    2.92813913676694    0.71784113418244
C          -2.01495121445200    3.67728976804091   -0.29922751320192
C          -2.42778455762523    5.05409758250001   -0.19204393763084
C          -2.35743425399170    5.85086859267575    0.96262209841501
N          -2.74017636218821    7.10754907166971    0.98151870059580
C          -3.20934248124747    7.63088848480783   -0.14881493861163
N          -3.33083410719526    6.97186335316164   -1.29798198340814
C          -2.95022125654680    5.71674591521027   -1.31530978087030
C          -3.62150910393973    9.04305618171008   -0.13698654842590
N          -4.18782568882328    9.51429447695135   -1.24539538458412
C          -4.54469635112470   10.78534125305561   -1.23760166298593
C          -4.34848208803413   11.60491209681977   -0.13877256641930
C          -3.75137435922571   11.01736769281926    0.98517620782464
N          -3.39348186469729    9.73334976679741    0.96756434082564
C          -3.50625194703695   11.78186683086257    2.19130853734983
C          -2.94248316919452   11.23856749759689    3.28192995412801
C          -2.67935115233054   11.92691704928162    4.51982752117970
C          -2.27702098511434   11.22304433151053    5.66462056812689
N          -2.04580691572468   11.80088652782002    6.82172146851972
C          -2.20290988178274   13.12667884457290    6.89088978138130
N          -2.56888638858746   13.89441165118330    5.86178588803086
C          -2.79432623938745   13.31562821997647    4.70992754757589
C          -1.95505242329768   13.82558022110064    8.12956927798222
N          -1.77999598722190   13.24225938886105    9.35873045452978
C          -1.89460972195145   11.84271729483420    9.69270583198690
C          -3.35271774325442   11.39668212014045    9.74666209514756
C          -1.55649481074171   14.20294563195935   10.36058509002493
O          -1.38687977680640   13.92109448114466   11.53191888627228
C          -1.57819714828978   15.46540290763713    9.65997603349608
C          -1.83184435161196   15.19579129978170    8.28330361483221
C          -1.81325639049462   16.45860499477289    7.57125688688328
O          -1.94599148090572   16.76619965623411    6.41059224399791
N          -1.55610428288898   17.41450160359224    8.58822193115176
C          -1.52136171244606   18.82293985661919    8.28117018531959
C          -2.83086456852758   19.51729652288093    8.64900185517154
C          -1.41918306016074   16.83341853506310    9.82186348376010
C          -1.13887953717519   17.57632233019335   11.01881392710289
C          -1.02741610911217   17.00206738703681   12.21806400151094
H           0.60997999121269   -1.95854019744188    2.86078906295500
H           0.51442830307253    0.63944241543809    5.58876749276925
H           1.45302701124479   -0.80859184946311    5.14150468484559
H          -1.54967833999737   -0.73326172795692    5.74944071678728
H          -0.29903330674785   -1.37980727653414    6.81610199898946
H          -0.65073444228430   -2.18048133742707    5.28066963435529
H          -0.84311033001208   -0.00299453052481   -2.22299634052237
H          -0.98239388808948    1.75980788918799   -2.08330509339840
H          -3.17678668757669   -0.33330899916000   -1.59986414972366
H          -3.10660226090750    0.80202599097266   -2.94969668325115
H          -3.41460320839551    1.38976888218133   -1.30886836819853
H          -1.47009016577548    3.36873899101198    1.70387642225386
H          -2.11724608261370    3.26965788015589   -1.29355060611315
H          -1.97965265123568    5.46527778898176    1.90088156561256
H          -3.06111983092990    5.20228927232861   -2.26347837895263
H          -5.00308135521246   11.15188899024819   -2.14762390089942
H          -4.64036580481926   12.64291419850308   -0.14274322766553
H          -3.81433899074835   12.81744354105390    2.16424884647191
H          -2.67737111592694   10.18975585734215    3.24095371300142
H          -2.14692552724344   10.14769070277179    5.63940281166677
H          -3.07299117747549   13.98302463152852    3.90471575126579
H          -1.43609529046569   11.73324704477889   10.67953510989937
H          -1.34724537754491   11.25324483370166    8.95644616374596
H          -3.90547139234008   11.99974170973986   10.46344136301075
H          -3.40601997478918   10.35537342348212   10.05102665361090
H          -3.81553591865024   11.49738982214766    8.76818510645663
H          -1.36333145501918   18.88985891369694    7.20081379970047
H          -0.67469199590886   19.29227514743038    8.79021164410215
H          -3.65431306069313   19.06472157087746    8.10224767232447
H          -2.77660692141917   20.57065575570135    8.38757786003988
H          -3.03366640068052   19.42970002444395    9.71421151787241
H          -1.01276127647285   18.64495561231187   10.91156105997799
H          -1.14684590050142   15.93919592561301   12.34730694354120
H          -0.81290428131596   17.58566481657752   13.09689997400226
