116
 SCF done       -215.883857497852          0.000574865880
C          -2.31732892650001   -2.48246714786631    2.53694489042976
N          -2.20661543714753   -1.53238175033124    1.57614784018122
C          -1.36339676278211   -1.60013539671568    0.40829045485020
C          -1.94906811645462   -2.52689879077386   -0.65333038446843
C          -3.07509205005003   -0.43828623164487    1.82738010141458
O          -3.13945528496541    0.54527697128993    1.12068568411300
C          -3.74902674503954   -0.81453327937561    3.04613577533938
C          -3.24600071556222   -2.08186231947692    3.46252898552108
C          -3.90875411024950   -2.42322443266744    4.70756918764852
O          -3.84616769281898   -3.39272363401152    5.42498476145161
N          -4.74867025139121   -1.31154497716851    4.97375182790747
C          -5.60541875425522   -1.32684154783260    6.13819200668291
C          -4.88091029804280   -0.79917976325423    7.37472867372864
C          -4.65347366643641   -0.35690732022096    3.99664515767980
C          -5.30647167764731    0.90663404301842    3.88981880519745
C          -5.86409437404392    1.64705578199723    4.87366710510062
C          -6.53461860705100    2.88905958012709    4.63481240972090
C          -7.77532519275640    3.20090849034941    5.16838427332202
N          -8.55094809562391    2.40234719353872    6.02408274490626
O          -8.13005515786393    1.29461016330316    6.33144044968926
O          -9.60704946421280    2.86213649767817    6.41923778977529
C          -8.25697940309093    4.43285841786579    4.59676144316890
C          -7.30634118683295    4.91250074028684    3.76511859906221
C          -6.15006144050985    4.04168476463558    3.80339893326934
C          -4.90403262490285    4.32519437679713    3.28691261081573
C          -3.78433445368360    3.43372499161195    3.16127231076790
C          -2.95126264845597    3.90406367521108    2.19833479483486
C          -3.43897357222730    5.17243075760318    1.73853631845252
N          -2.73886480055140    5.94233842229754    0.79412228373141
O          -3.20763934018422    7.01394589471074    0.43781771890639
O          -1.69017896881198    5.48699689834443    0.37253416879721
C          -4.56632546124845    5.52749235080691    2.48155571379997
C          -5.09742711959245    6.82969479256120    2.54793636974325
C          -5.67566622351573    7.39230832188275    3.65382538771961
C          -6.07060961714004    8.74066025831041    3.71576093599374
O          -6.50037525866086    9.23090426840265    4.92579680334029
C          -6.77304489636522   10.52426263199444    4.72460281754150
C          -7.18419151536807   11.67879112256103    5.37981446308870
C          -7.19033408573400   12.66422499550754    4.38505922601362
O          -6.79646155262757   12.16894849317153    3.18006606204023
C          -6.53625702732988   10.87397130150128    3.37421099895009
C          -6.08198372237978    9.73670745192003    2.72556940221266
C          -7.55675933148518   14.03600149119154    4.47488463417658
C          -8.19341313488726   14.80332373854829    3.51062827706721
N          -8.72750938686413   14.38494304250015    2.27116830615420
O          -8.91857132594402   13.19737269940516    2.09015757330534
O          -9.00163674173247   15.25776379737421    1.46801181678124
C          -8.38762300769331   16.13225522345541    4.01553945406038
C          -7.93085690465081   16.18205102293587    5.29312299069455
C          -7.36718728159769   14.90693098876983    5.63927902887932
C          -6.60187064463041   14.63175312407967    6.76174620123566
C          -5.46984862666936   13.76278604087483    6.81185268318422
C          -4.79196379105575   13.97724677365184    7.97621905417417
C          -5.50568660136649   14.93608093861690    8.75656370406061
N          -5.09507896956257   15.31975956961861   10.04152865315798
O          -5.77992348653054   16.11761087107666   10.66887370843845
O          -4.05978220971356   14.83681298122264   10.46639825873289
C          -6.64609462220009   15.34430508781337    8.05244207143615
C          -7.68325457104531   16.14047179550852    8.57076097814407
C          -8.96357986546423   16.16664856919359    8.08875620725943
C         -10.05077512398796   16.96355124621363    8.49551643885227
N         -10.17666205956184   17.88660453801436    9.50427001967543
C          -9.19322564286302   18.30377710917037   10.47875632424518
C          -8.21948428949001   19.32773632076239    9.90147543831494
C         -11.45892935896545   18.48489021123718    9.51291314614537
O         -11.80279384687570   19.32258102782358   10.31443825506859
C         -12.15519089441537   17.86005820989389    8.40482610251464
C         -11.27814474113891   16.93406601246262    7.81596712936512
C         -11.95348306830838   16.33456855345160    6.68990771480542
O         -11.60357005134790   15.51374594845070    5.87051096352132
N         -13.23576269427511   16.94780577184018    6.68656638944882
C         -14.19989910959939   16.56200997328875    5.68475582207733
C         -15.14783225419896   15.48196637340765    6.20152493766214
C         -13.36428485764411   17.85195798843634    7.70411277201148
C         -14.46635747440444   18.70133857791022    8.05464268874169
C         -15.71737998940218   18.71886345796922    7.58804075668280
H          -1.72135889477156   -3.37602491692680    2.50429811046024
H          -0.36692465224007   -1.94044927882654    0.70432667190088
H          -1.29432624384867   -0.58157917939542    0.01706138409934
H          -2.04472750352074   -3.54038320946029   -0.27007754722598
H          -1.30120952220238   -2.54285403473420   -1.52498131989287
H          -2.93183344753280   -2.17461498629380   -0.95668291730218
H          -5.87529730891566   -2.37306824732147    6.30975686509362
H          -6.51387790278451   -0.75761924988425    5.93475750306663
H          -4.05352309479398   -1.45784759776820    7.62677137489656
H          -5.57113125390417   -0.76658500353989    8.21235460228665
H          -4.48568477679042    0.20064079486827    7.20684138859773
H          -5.30617131849245    1.29231519226394    2.87700320140647
H          -5.92888550704543    1.26978214103188    5.88334982897088
H          -9.22817185655436    4.84042895973136    4.80091817422785
H          -7.38976972306983    5.78485412355168    3.14962647508935
H          -3.65307649737663    2.51912448606125    3.69976138303845
H          -2.06284730104306    3.43551408225572    1.82058058520880
H          -4.88111360918313    7.46486987074362    1.70016847590955
H          -5.79172093104185    6.82602002333268    4.56764439490619
H          -7.47127377644298   11.81293787039201    6.40129646270152
H          -5.79825125916439    9.61812194135316    1.70115004602231
H          -8.83806359565862   16.92136369472551    3.44488486116603
H          -7.89503492613353   17.05103856582205    5.91971130289375
H          -5.13985257367443   13.14587490277857    6.00011219870471
H          -3.87032596965793   13.52327052239093    8.28784574711429
H          -7.41808656026392   16.69961820692408    9.45545110044468
H          -9.22494428040629   15.49990402454319    7.27638463225701
H          -8.66825789459218   17.43206688296880   10.87368660298414
H          -9.75862875683867   18.76644133652605   11.29301861357321
H          -7.72275251745509   18.94475792902064    9.01299214347398
H          -7.46470583248408   19.56778736524479   10.64429003949466
H          -8.75154845140003   20.23798352828765    9.63550545214225
H         -13.62139378844166   16.15903084736626    4.84793289759988
H         -14.74115809923483   17.44655243328986    5.34311927477298
H         -14.58518929592483   14.58161453805040    6.43515318164345
H         -15.88318276224090   15.24197042098308    5.43877318764794
H         -15.66449180898150   15.80744590751170    7.10166059632585
H         -14.19178601892919   19.40270898774216    8.83356853606833
H         -16.09742815582751   18.04121529249808    6.84591032092888
H         -16.42177006959450   19.43718469936771    7.97138976141949
