138
 SCF done       -231.999530656996          0.000309416731
C           0.25656036086953    2.44249567647139    0.18972155056295
N          -0.18740644786870    2.88273673114662    1.39458874519714
C           0.59318010672567    2.97646547884417    2.60172860543859
C           0.79339865893901    1.60841731760771    3.24903037104034
C          -1.57569573680895    3.18115923601400    1.35724411725563
O          -2.19789934601311    3.58665796576858    2.31834034154151
C          -1.94375660004915    2.89548936137561   -0.00481209287357
C          -0.78746680112104    2.43889927909742   -0.69811202356204
C          -1.18505591026786    2.16695341770797   -2.06830348960092
O          -0.56372378462979    1.77523262083891   -3.02958765537315
N          -2.56394185706206    2.46815108093205   -2.10188105915373
C          -3.29226253733998    2.36013776556082   -3.34337526711487
C          -4.03666438586141    1.03177941206686   -3.45499060676701
C          -3.02582746455477    2.89843497207010   -0.88287044715553
C          -4.31864137954429    3.28758147589741   -0.46239637312409
C          -5.50787133975393    3.23988847311818   -1.12292038821902
C          -6.72740357783392    3.69716750177052   -0.56912934450984
C          -7.84377793200088    4.14684057590743   -1.29991601022360
N          -8.05091624027579    4.11890867064716   -2.67440177235227
O          -9.07844733210476    4.63215548283782   -3.10529585638928
O          -7.21070241419204    3.59834485223206   -3.40250516615310
C          -8.77803878600310    4.73235067261954   -0.39957475068363
C          -8.25414861301097    4.69445742981188    0.86131002803005
C          -7.00681719909097    4.00132225806446    0.82366912102163
C          -6.33299895150353    3.49862961358592    1.94121129398454
C          -5.71569035630153    2.23918286949374    2.04160522637813
C          -5.34402225602585    2.03054059960476    3.34537758673666
C          -5.63762168438416    3.18198243214758    4.12525163299491
N          -5.34335950129068    3.18807416564893    5.47844149293335
O          -5.62277337781623    4.16968612871541    6.17884091858775
O          -4.81896991692904    2.19031310865479    5.95477561671318
C          -6.23261957035297    4.14982113481530    3.27244099952391
C          -6.46430719244058    5.51552103145445    3.37591466315568
C          -6.12760936330256    6.29280875367445    4.46939229429651
N          -6.13897111374375    7.60584643588080    4.53379296985764
N          -5.81233948475510    8.32566290765782    5.66852039306897
C          -5.09085148198550    9.49821389748688    5.20019531045167
C          -3.56726577347951    9.29502572739616    5.15940061477266
C          -3.11749549093874    7.97613521297444    4.53064080155645
C          -2.92654004879332   10.54951008146402    4.52945527464655
C          -3.66363812344602   11.06064785966130    3.23497825960711
N          -2.67572476051816   11.22871010482852    2.18474543880562
S          -1.44840292762803   10.06974652784931    2.49333783249048
N          -1.53610987036514   10.28882996797435    4.20130933613783
C          -4.74837399273686   10.10973868159831    2.70796387639873
C          -5.46047722896390   10.79904651434580    1.54443642449317
C          -5.73893351334350    9.75082703573403    3.81908708812224
N          -6.47180595491165    8.50086979992183    3.51802743438055
N          -7.82710091998120    8.48549510549037    3.30284266887773
N          -8.63693456437587    9.39167381140146    4.01095328033772
C          -9.94739254059930    9.27353898695977    3.38270556850651
C         -10.56833674485167   10.63970689928427    3.08728721574296
C          -9.71028605520536   11.53568979877950    2.18928308762289
C         -11.98852510424151   10.38473360354384    2.54322959361136
C         -12.04710695996393    9.18934133875634    1.52424134427224
N         -12.86280967115811    9.60490672802318    0.39843033028914
S         -12.56995518847309   11.27782417354820    0.20126908723895
N         -12.52250940884345   11.57705388890388    1.90506498022753
C         -10.67787845649716    8.76775121679195    0.96745600419431
C         -10.88751216475913    7.56079724746021    0.05705504636603
C          -9.71441330879447    8.42445257588820    2.10116109427552
N          -8.26567220607856    8.56354189629451    1.91022140327038
C          -7.40264461464333    8.12519566034151    0.98696595146997
C          -7.44251262798971    8.06816132829291   -0.38007446696362
C          -6.47617788922819    7.33268914610733   -1.17233430898371
C          -5.27714767996383    6.78846342997026   -0.77021178733282
C          -4.36585154664603    6.17287589770185   -1.65037975936439
N          -3.56535401022594    5.68190015510656   -2.31227143007909
C          -4.74841933612144    6.86139267932517    0.52721482820734
N          -4.27849907056973    6.92361746484264    1.57653328148216
C          -6.98387646415585    7.29494526986447   -2.53758417537093
C          -8.11235267208518    8.15961088387459   -2.62928614796906
C          -8.33116640693494    8.78654178950277   -1.31809343970279
O          -8.96196078199689    9.79837934381628   -1.07677231783205
C          -8.82007476246740    8.30129780632525   -3.78579220989775
C          -8.44732793045654    7.53866118466456   -4.91592627682953
C          -7.32029289606266    6.67228054056814   -4.83325304678077
C          -6.58111467512617    6.57847571300341   -3.63294404511593
C          -6.97387305887369    5.89300814777401   -5.95428905952755
C          -7.70595417189304    5.96728309003718   -7.10781819797024
C          -8.80908966850377    6.82861856167931   -7.19337805470814
C          -9.17212026556236    7.59788669195784   -6.12072514318154
H           1.28582366003886    2.16979977705606    0.04494733478175
H           0.03695076136342    3.63013446501096    3.27892327789617
H           1.55920833148589    3.43471279551774    2.36976580359917
H          -0.16937253060808    1.17361871708585    3.50541142208867
H           1.38136390552496    1.71121197745266    4.15665910942108
H           1.31164294688182    0.93427943343778    2.57037494503333
H          -2.54334483642534    2.42036900030927   -4.13848192080312
H          -3.96839562099078    3.21163370971822   -3.43612658989434
H          -3.32486216888075    0.21061727801391   -3.49578776645293
H          -4.63584673747842    1.02282241546439   -4.36098582807553
H          -4.69410428476013    0.87627599555925   -2.60264992515437
H          -4.30529436075628    3.68320409805246    0.54577275890115
H          -5.56671057713003    2.91794884343475   -2.15081233954019
H          -9.73709700623423    5.10114491044092   -0.70597918525547
H          -8.75711114144855    4.99049964239863    1.76308347739498
H          -5.63361632226772    1.53133584535438    1.23966947268732
H          -4.90092007005216    1.14149288148532    3.75334619592514
H          -6.85404340994092    5.99871381456035    2.49530355897281
H          -5.80028021482666    5.78419171681768    5.37201004521752
H          -5.32144164895046    7.76202390036084    6.35473715611454
H          -5.31680611129861   10.32743996273861    5.87958159957264
H          -3.22206092946341    9.27503087814861    6.20091164820054
H          -3.53972142530960    7.78625828508859    3.55168932932345
H          -3.36852979159268    7.14019818296365    5.18019733830094
H          -2.03660405321278    7.99511808197264    4.42946269454160
H          -2.96659530099128   11.34703999446304    5.28162614963489
H          -4.12818488443243   12.03133775634705    3.44390031382318
H          -2.29335129320044   12.16866608760442    2.15211060511120
H          -0.91859368369615   11.03493671885809    4.50293425757063
H          -4.26154372177668    9.20873664494303    2.33081652132216
H          -5.94411845706110   11.71746443115467    1.87545151794558
H          -6.21047094670841   10.15343231774294    1.09851623438046
H          -4.73211862787202   11.05339761264098    0.78041286473447
H          -6.45146741355946   10.57721356004426    3.91216814862629
H          -8.31545837373632   10.35602889376806    3.88329475956467
H         -10.60441371974707    8.72257809896105    4.06606893060158
H         -10.69181065033679   11.16236148141105    4.04340392564024
H          -9.25743137010533   11.00194935796497    1.36049992955628
H          -8.92190793910505   12.01734701051278    2.76737938955534
H         -10.33866791783636   12.32189216011781    1.78169219656328
H         -12.62149009435588   10.13026050315865    3.40250816671397
H         -12.51573348888141    8.32193073894717    2.00223475428755
H         -13.85062319881448    9.41241867591477    0.53361634895990
H         -13.44525822978297   11.81759632949215    2.25049493205972
H         -10.30523164435822    9.59145929110298    0.35971279950032
H         -11.27639392544496    6.71457569289600    0.62226449887474
H          -9.95345906068753    7.26869619498533   -0.41110589631788
H         -11.59758417556542    7.81596109701097   -0.72383624013332
H          -9.87863332588639    7.36830561850124    2.37104297875471
H          -6.47544260338880    7.79298259980861    1.44281324861830
H          -9.67268396014867    8.96236613002693   -3.83189884665092
H          -5.73641309464106    5.90872232885097   -3.60244284265431
H          -6.13201362809312    5.22178860218658   -5.87515562285418
H          -7.44152758624219    5.35814168882677   -7.95927665635057
H          -9.37591999049612    6.87482976424562   -8.11168584763484
H         -10.02689173268680    8.25611563483137   -6.17915937114907
