133
 SCF done       -231.058353598737          0.000904800285
C         -15.08129524030643    9.02715598166328   -4.51360816974271
N         -14.15343827809137    9.92666615212528   -4.93465419819781
C         -14.29810544718094   10.83257150603777   -6.04566256173236
C         -15.22669717420872   11.99568415643818   -5.70572216530992
C         -13.01322338154575    9.92832558551470   -4.09114286911047
O         -12.05363859687015   10.65117081448141   -4.26726957747490
C         -13.32181106727116    8.92736814208546   -3.10197365893222
C         -14.61307502376090    8.39185432429105   -3.39703537815965
C         -14.90499909103012    7.38931056119156   -2.39478565892649
O         -15.86374875143735    6.67200013328531   -2.21502821436805
N         -13.76668321619311    7.38572370067289   -1.55574472104311
C         -13.71723807227345    6.46353335613437   -0.44666253090459
C         -12.90520364887369    5.21344933471249   -0.78191140599660
C         -12.81640460458285    8.29237078478200   -1.97628751524161
C         -11.54351691847266    8.60808436312676   -1.42996405294846
C         -10.89623856898847    8.05826676418679   -0.37441391561286
C          -9.61111821057398    8.48259283924925    0.05866903563248
S          -8.68891031906841    9.66365979639500   -0.82006423783750
C          -7.35846681908209    9.55054162766032    0.29032796407221
C          -7.61859502099420    8.61002140886606    1.27922632715835
C          -8.89398789945680    8.02954109637413    1.16056708916269
C          -9.45235919369146    7.06191933461552    2.16641396778899
N         -10.70264301788424    7.66602716854416    2.72492979375386
O         -11.74773184978181    7.14590956177347    2.41771462221140
O         -10.58246752904030    8.63441648911440    3.42952276645715
C          -8.48716238470433    6.81698702934796    3.32598094002516
C          -7.05461448667432    6.74333444482183    2.82134404072345
C          -6.62810062853496    8.11725609992228    2.28977568098185
N          -5.28749867219351    7.89973528497036    1.67404992659788
O          -5.25423353186842    7.40921049591304    0.57652383572389
O          -4.33010120678797    8.17231028985479    2.35589037971872
C          -6.22480622756556   10.37405597150725    0.04067947412536
C          -5.27234355859153   10.73663881980682    0.93185882458699
C          -4.12089716758003   11.49419839283798    0.60184471074395
S          -3.86634872403922   12.13673923241017   -0.99317428492020
C          -2.30008091876401   12.74947798931898   -0.54287973443895
C          -2.01248577523447   12.45730238836243    0.78594490506621
C          -3.04264070232571   11.76765883762515    1.43536313011083
C          -2.94134870110663   11.31930119441883    2.85624634756729
C          -1.81928554325782   12.05200652441195    3.58769867353216
C          -0.53522302719210   12.02135621884443    2.75704510962167
O          -0.22962942404622   10.66536359808306    2.50767025718694
C           1.07979744776308   10.41396058200946    2.07450581189573
C          -0.73961241471230   12.84030274978332    1.47180567047169
C          -1.47765887622858   13.42534410030334   -1.47413079104753
C          -1.85190440846811   13.74468596910959   -2.73796765773544
C          -1.00931083828101   14.38715825937562   -3.67781332455768
S           0.62156715887222   14.84105820323474   -3.27582992118062
C           0.89349229627715   15.50533677431389   -4.85964001381800
C          -0.25474248574379   15.40676951607879   -5.63705173835744
C          -1.30799052159102   14.74910200616623   -4.98758236208519
C          -2.58864749172707   14.40407682147728   -5.68598167714058
N          -2.91200824640784   12.96172399074447   -5.48118686871722
O          -2.02868099024453   12.16808259952696   -5.68338978709660
O          -4.04345762147212   12.69362181864823   -5.16253922009454
C          -2.44188705100054   14.60023488969386   -7.19967057998672
C          -1.83323361940148   15.96427525243915   -7.49018854328302
C          -0.38047369126139   16.01000150469240   -6.99783182266867
N          -0.01020642882306   17.46470956937644   -6.99343963533106
O           0.07502342898830   18.02941584789789   -5.93226361212210
O           0.10686872832448   17.97818517765523   -8.07450995783567
C           2.13924836441186   16.00332795307929   -5.29123685633157
C           3.25245626217452   16.17052694886057   -4.53177606251325
C           4.45173912588492   16.64013735328655   -5.12072255045886
N           5.61511912255467   16.89638589061042   -4.43200299427418
C           5.80438848885270   16.79932952705828   -3.00616346311069
C           5.19440164190546   17.99041567561332   -2.27068698546612
C           6.64130961700462   17.35560713405460   -5.27725624051908
O           7.75413931364366   17.63870601428822   -4.87889537808332
C           6.04472720180915   17.36356579108165   -6.59402854378489
C           4.70005942930109   16.91516783274422   -6.46306881323059
C           4.10854937051327   16.90795474849491   -7.77542050574420
O           2.99572421623670   16.59211765797250   -8.17064319302939
N           5.12532917268922   17.37088313499544   -8.62147356674729
C           4.91439665711251   17.47433985508027  -10.04445951449067
C           5.51068881049178   16.28543394747971  -10.79469859511270
C           6.28564242398156   17.64118349593373   -7.93103986649615
C           7.47816836153816   18.13552466717269   -8.55619921295817
C           8.60558637098499   18.37313203871797   -7.88232398944236
H         -16.00672043224609    8.89790316856691   -5.04409128489357
H         -14.67737767679832   10.28274336620503   -6.91242633066658
H         -13.29596156576571   11.20889655385862   -6.26852088349421
H         -16.22207152004819   11.63296821409656   -5.45834908087964
H         -15.30123453241137   12.67046413146026   -6.55378191574572
H         -14.83603249080473   12.54699209112767   -4.85398466252899
H         -14.75516236050778    6.17187509701560   -0.25912398003642
H         -13.33629505125189    6.96457804364328    0.44581661265575
H         -13.39125917395115    4.66315936805677   -1.58379268845874
H         -12.84390266116209    4.57262295661969    0.09336839705520
H         -11.89863764175734    5.47004224100268   -1.10587568551718
H         -11.05288525973316    9.41083475130010   -1.96897869764847
H         -11.34165263148036    7.25170946433115    0.18257845007353
H          -9.75245148341932    6.12576567089873    1.68354312932035
H          -8.75221440850306    5.89137597785908    3.83852945130917
H          -8.57738560707119    7.64393976319022    4.03526141865515
H          -6.98244164158331    6.01089845944146    2.01320506735385
H          -6.38758261237484    6.43887014790235    3.62925499161292
H          -6.49097233636412    8.81517572308936    3.12305895990277
H          -6.15115808695542   10.75717884186379   -0.96921749146909
H          -5.34415490966892   10.44999366001360    1.96977865152278
H          -2.73403760345314   10.24528458365173    2.86358842773804
H          -3.88638770220700   11.48383526533783    3.37833042135009
H          -1.64114423138435   11.57092576915458    4.54927202408677
H          -2.09704625191839   13.09277189615218    3.76397011580232
H           0.28962653345502   12.47869843319997    3.33196291534640
H           1.19405079289693    9.33167163954782    2.06914807471680
H           1.81684597672781   10.85469853988128    2.75852154667860
H           1.26612467634611   10.79398950352890    1.06326321548171
H           0.10797895816631   12.69328252280117    0.79987505325610
H          -0.76775047348565   13.90212282548559    1.73525515541548
H          -0.48328085786531   13.69312878500565   -1.14144939480134
H          -2.85995319407198   13.50572994808145   -3.04733340873730
H          -3.43890949228841   14.97375744710784   -5.29400457314485
H          -3.41857410646405   14.51465232485223   -7.67821890805261
H          -1.78877878937596   13.81724309956583   -7.59334668172199
H          -2.41520289406795   16.73281061159395   -6.97338340495905
H          -1.86160591849937   16.17654568049722   -8.55891675694850
H           0.29166765224295   15.53384215225748   -7.72064022185040
H           2.20720612880571   16.24403198884095   -6.34297531669130
H           3.22989167641025   15.95212122665188   -3.47368161718716
H           6.88613692235790   16.78235031093131   -2.84507984993608
H           5.37801290087602   15.85909531203760   -2.64428895178352
H           5.66236620954708   18.91196261486433   -2.60780506439788
H           5.35827480879103   17.88766393395244   -1.20146470901061
H           4.12503425598049   18.05702905199868   -2.45856059384001
H           5.33160321293174   18.41617995045399  -10.41126946054574
H           3.82990752381694   17.49193272970011  -10.18695711742018
H           6.58444971125813   16.22070470414991  -10.63234212586698
H           5.32200994296789   16.38948814262478  -11.85966354953114
H           5.05305245641833   15.36186488735063  -10.44856844215954
H           7.43152281980747   18.31715816544745   -9.62118365253908
H           8.67643444036719   18.19559971462303   -6.82237988597949
H           9.48382729960487   18.74638540905369   -8.38005624687001
