85
 SCF done       -147.658472006294          0.000468757785
C           1.35504979207854   -0.98607535290548    1.38074707369655
N           1.27548955451539   -0.13919292060296    2.44230456044739
C           1.76686457770945   -0.40434183280692    3.77119306457131
C           0.89159011952023   -1.41638617383490    4.50517282622191
C           0.59118331365114    1.04784118713894    2.10442109996469
O           0.39331016781735    1.95243769814549    2.89544468181385
C           0.25218958773551    0.87360163317054    0.71405438355256
C           0.74387918341680   -0.40948723616069    0.30449654180239
C           0.41733558960103   -0.58675313721299   -1.09481697251936
O           0.61831127999137   -1.48934517723485   -1.87561791844618
N          -0.24345935641482    0.61004922857325   -1.44387070967734
C          -0.78063511510368    0.79873539855307   -2.76874907912319
C          -2.28991019836146    0.57002886981111   -2.81019382727250
C          -0.34574693875575    1.47925677280105   -0.38005199539838
C          -0.94201845355399    2.76957840108356   -0.47851210360794
C          -1.05114713995324    3.59519497364719    0.58575464154605
C          -1.61030963398616    4.91736150282708    0.56899208485663
C          -1.73698016009965    5.64496077540587    1.76721152949231
N          -2.21913166089130    6.86250514248809    1.81816213908234
C          -2.59830063004791    7.41843990946386    0.66445929886776
N          -2.53613896792640    6.82286380693697   -0.53706239679927
C          -2.05305495612273    5.60242782439179   -0.57454308681543
C          -3.10006767110620    8.75355444668972    0.68754515165197
S          -3.24977530967453    9.68529475950336    2.15122497281555
C          -3.85464439380908   11.10678096070118    1.30597711301778
C          -3.92819243810412   10.82979034557733   -0.04237644670361
C          -3.51215437402789    9.51500343670823   -0.38050172744012
N          -3.65164875560993    9.37262215341607   -1.72876699764614
C          -4.14813488138675   10.53473350392397   -2.25909428726175
S          -4.48969331905577   10.82336368891731   -3.83121472821726
N          -4.31016289157803   11.42144818565517   -1.22174166170332
C          -4.16759466202159   12.30751253351744    2.01829940241345
C          -4.31111714660436   12.33245068337620    3.41549362173274
N          -4.57749680659119   13.42550413157888    4.08769598198118
C          -4.71518879661169   14.56209645986165    3.39590133060506
N          -4.61543677617712   14.64610799989388    2.06683891232640
C          -4.34502942813245   13.55790128210606    1.39642245482802
C          -4.96201251097545   15.80494362217491    4.08348973497525
N          -5.40774432192834   15.93452629768733    5.37336069798642
C          -5.70508249576092   14.88107362292230    6.31323778955547
C          -4.45388767668907   14.42465071173326    7.05655882237094
C          -5.54756278821493   17.28594754768434    5.73939092396949
O          -5.94890119351845   17.64416373713239    6.83006557361312
C          -5.13664913988062   18.02063180507551    4.56583637796577
C          -4.79098635866663   17.07400544473499    3.55840037797037
C          -4.33405825507252   17.80577559821381    2.39440604944751
O          -3.91087094289278   17.47223920303411    1.31276200397958
N          -4.45153070360753   19.16443490740023    2.78437778584290
C          -4.13251617049167   20.22433939177413    1.86014822082897
C          -5.38561725659916   20.81710883373317    1.22026755539895
C          -4.92536510449668   19.29634182886998    4.06362867803299
C          -5.12091830670475   20.56498841323307    4.70766927974748
C          -5.59960095987816   20.68071691423992    5.94785034365564
H           1.85094106237439   -1.93520774988310    1.46589371885320
H           1.75596696610935    0.55274328622712    4.29958467054325
H           2.79727272558251   -0.76744345439133    3.70777128419705
H          -0.12766768119633   -1.04554801977708    4.57990177659858
H           1.27754308143453   -1.57886062718435    5.50743946433324
H           0.87802947506374   -2.36766292152415    3.97791351410860
H          -0.28156584599359    0.05920166510402   -3.40150575656193
H          -0.52659494734384    1.79888457846470   -3.13222980615187
H          -2.51883715569422   -0.44298988154887   -2.48892104595093
H          -2.65506256300000    0.70332146777278   -3.82474206000281
H          -2.81062742138091    1.26544707623315   -2.15521860277531
H          -1.30209902655621    3.07324306073906   -1.45049022124896
H          -0.68992745176697    3.25726749488448    1.54845088906818
H          -1.42999080605980    5.21065670221767    2.71042651805463
H          -2.00909176779615    5.15605210696844   -1.55998968946245
H          -3.42845237313978    8.54198374928599   -2.25261412257805
H          -4.68768194311555   12.34429214347746   -1.35787338191027
H          -4.20219640800721   11.42475246616760    3.99679387624592
H          -4.24151003682705   13.68352670895860    0.32719001882450
H          -6.15197587621185   14.04154880859617    5.77878132519942
H          -6.42531353509505   15.29922719605683    7.02241152757396
H          -3.73867093577701   14.00453622474343    6.35496204591411
H          -4.71871908428321   13.66517886486582    7.78627051531384
H          -3.99995373507225   15.26561468770870    7.57485874760507
H          -3.50806679429511   19.76864327009132    1.08625846993036
H          -3.55191456396039   20.99796076992137    2.37042573729903
H          -5.92668287477116   20.04238124250333    0.68300505033184
H          -5.10704353986628   21.59789944854268    0.51799036268287
H          -6.04578553818276   21.24119300665206    1.97365571661162
H          -4.85651152559546   21.44654895118787    4.14013911410100
H          -5.86876553100127   19.81592142788528    6.53122013555071
H          -5.73099246762303   21.64601250434537    6.40590106376261
