90
 SCF done       -159.004856866201          0.000826028292
C          -7.98616118849101    1.58514310926739   -5.64879182184011
N          -7.66420035206182    2.77649453339713   -6.21439357236909
C          -7.74799921819197    3.09583283543021   -7.61754367155442
C          -6.55889014582484    2.53045234724319   -8.39035611831725
C          -7.13530868820348    3.67860356488176   -5.25648925029811
O          -6.77726107144099    4.80696214851261   -5.52368105885385
C          -7.17256118277617    2.92729514156017   -4.02593249693402
C          -7.70753535529386    1.63407900462877   -4.30968035358963
C          -7.74661832552430    0.89784065288577   -3.06399667837700
O          -8.12754468726553   -0.21527483490766   -2.78270561723512
N          -7.21893800803456    1.79838744049945   -2.10750657236651
C          -7.10745843410785    1.37885072805419   -0.73213496992664
C          -5.72009786210164    0.82133839099783   -0.41841589056201
C          -6.86952088910601    3.00460641197785   -2.67387342689776
C          -6.31369874265362    4.16998763896260   -2.07982108240005
C          -5.81647163461430    4.36753662932022   -0.83562779747111
C          -5.28298022309683    5.60868649862455   -0.39621909751052
S          -5.29605068912959    7.04783693952405   -1.37821323739113
C          -4.50844333482234    7.97805697490045   -0.14037600292581
C          -4.25424050540742    7.18129672364248    0.98097019058363
C          -4.69628501852225    5.85812941927418    0.82712528266792
C          -3.63153218769866    7.61233701762183    2.16387217902313
N          -3.12895037715389    7.91276860896369    3.15116396177258
C          -4.23465226273285    9.34599499603488   -0.38142075171068
C          -3.58227006647209   10.18565854732098    0.46151970035464
C          -3.33351387170975   11.55212320242374    0.18831179600253
S          -3.90768649434856   12.34853898499868   -1.25402198228783
C          -3.19053297014462   13.85994000744923   -0.77664836154823
C          -2.53851423283756   13.71920752197280    0.45539174753449
C          -2.62743886405073   12.42961216060071    0.98981676745638
C          -1.87556366141305   14.78382346789449    1.09213637021492
N          -1.33459802758016   15.64465445815872    1.62181350890523
C          -3.27913030605810   15.03577920103247   -1.54790352061738
C          -4.00025103336836   15.13859950399760   -2.69916637281554
C          -4.10288864967443   16.30570263782119   -3.48931015451824
C          -3.45159410227873   17.51752133418971   -3.35307115601118
C          -3.88380648213421   18.39891591197402   -4.37739884090768
C          -4.86960084319503   17.64587487929602   -5.18181433934223
C          -4.97802901366335   16.40252939956144   -4.65171663252305
C          -5.54584001658198   18.09361173301681   -6.32281894146786
N          -6.10981020112495   18.41479993211706   -7.27024527938045
C          -3.46957573355571   19.69432502043537   -4.60474683302992
C          -3.96655799234848   20.61323085705054   -5.56932103156153
C          -3.25627532087382   21.79425026411027   -5.47967416848952
C          -2.26125054448420   21.63677651784165   -4.43022776473424
C          -2.38944901825099   20.39759409251276   -3.88793420099863
C          -1.59415763524430   19.88978521195112   -2.85524453192745
N          -0.91828781729059   19.50251823740974   -2.01074892313318
C          -3.43892074403291   22.97027929523054   -6.25528834945323
C          -4.46803691843880   23.25097810353267   -7.12481889860723
C          -4.26026407822776   24.54331492540325   -7.70155689503141
C          -2.99335648499513   25.04356186875319   -7.12540909640506
C          -2.52839146194138   24.11010575771547   -6.25880358200429
C          -2.36245595890913   26.26389254597965   -7.39307926906760
N          -1.81056924922440   27.25422465956058   -7.57798779245228
C          -5.06321631745107   25.20088000569471   -8.59137728565126
C          -4.82038947485152   26.48426274065705   -9.21790425105582
C          -5.85156605481283   26.76354325103796  -10.04627152024930
C          -6.81434181401754   25.68668963261268   -9.98425060056994
C          -6.35772336815803   24.73961615346829   -9.11813091140811
C          -7.03774882259943   23.56822738668119   -8.77178374041458
N          -7.63214138505932   22.62357734010467   -8.49884621613365
H          -8.39845692920382    0.78618568495307   -6.23733871217642
H          -7.75352393390122    4.18669087237626   -7.69037391709750
H          -8.68657530920191    2.70247313652636   -8.01801630862542
H          -5.63171836672440    2.94611776814834   -8.00336700747895
H          -6.64440631093562    2.78917784892985   -9.44182454703688
H          -6.52094879451354    1.44706423070026   -8.29799947978495
H          -7.84718148326484    0.58302850927158   -0.59958830853798
H          -7.36982045761992    2.21094896531569   -0.07466378949512
H          -5.54404459100885   -0.07102474518005   -1.01362814015193
H          -5.65677576928188    0.55429270662149    0.63301086315422
H          -4.94076694504305    1.54493329368223   -0.64856723325781
H          -6.27472101429886    5.00053434661570   -2.77654918595458
H          -5.77400409293427    3.57810543845978   -0.10141518777607
H          -4.58362521564763    5.10994730409864    1.59224813892896
H          -4.58291996242574    9.72909275746039   -1.33321409976054
H          -3.20783744908982    9.82485684415212    1.40878686832688
H          -2.18992967429886   12.14212844714859    1.92941432702658
H          -2.74142547624173   15.89332350371387   -1.16515382781902
H          -4.55384904011414   14.27144065967926   -3.04071779356359
H          -2.73521335763191   17.77144747175193   -2.59756543093824
H          -5.60370291947149   15.60623244481363   -5.01136200258218
H          -4.76704509804335   20.41025272160816   -6.25280359422921
H          -1.55407404813896   22.38551936210153   -4.12577165310628
H          -5.30440118050468   22.61692295437583   -7.34281031183407
H          -1.62624546231775   24.18330434180350   -5.68026826109035
H          -3.95003651740224   27.08546629529233   -9.04463712558443
H          -5.96576600737463   27.63668142808666  -10.66128609344357
H          -7.73751917816629   25.65217573383838  -10.53319877884725
