116
 SCF done       -197.144030628697          0.000790912068
C          -2.08691279732097   -1.88024413380266   -1.31961845802577
N          -1.31328891181040   -1.09575250750934   -2.11377547505483
C          -0.35183448695628   -1.55919114141632   -3.08143642421515
C          -1.03319507718417   -2.11291672178024   -4.33024303914668
C          -1.61781830130928    0.27686754429777   -1.93909901189591
O          -1.05209709508617    1.16100496572650   -2.55144564626831
C          -2.65831607568941    0.27749240038608   -0.94076840035869
C          -2.91919581437378   -1.08377813765422   -0.58341889466905
C          -3.96247512856583   -1.09156108883936    0.42316273185248
O          -4.51045651144051   -1.98945943386066    1.02339276615039
N          -4.25973080595588    0.26998546672049    0.61307869067320
C          -5.29912691747677    0.68563835255271    1.52321060771654
C          -6.58448325671701    1.06504491779664    0.79106545498056
C          -3.49687182972752    1.09311406194694   -0.18939083047732
C          -3.62605880222372    2.50401425519570   -0.17437802285675
C          -2.87907939970765    3.32778202930130   -0.95443984302916
C          -3.02361128225485    4.74398058892904   -1.03859607301050
C          -4.13715623464463    5.47663610916163   -0.55508286791300
C          -4.17811669601993    6.90107770584385   -0.67469275251083
N          -5.29720115637149    7.57594644352287   -0.34904975708889
C          -6.26558395480681    6.92932602374623    0.23148507932509
C          -6.18513355195188    5.54086310668460    0.45627681456992
N          -5.18013234829664    4.83781407051297    0.01596147203616
C          -3.07557587245809    7.63589173640468   -1.17736681587853
C          -1.97445717874821    6.91432711911628   -1.68003407718146
C          -1.97514020536240    5.48403797550717   -1.65065624787512
N          -0.92986014916225    4.80487570494708   -2.15949252120360
C           0.09496286120302    5.47219522884103   -2.60693887434016
C           0.13787030653507    6.87962150396328   -2.54403745513354
N          -0.87619263088186    7.57671163031209   -2.11027636510627
C          -3.12782405033507    9.06010444494155   -1.00047582676055
N          -2.76119823969476   10.03639224636747   -1.88345770787118
C          -2.37051928442269    9.86004861288101   -3.26088766358965
C          -3.51345779160309    9.29617942184128   -4.09994056672118
C          -3.03993155179591   11.32642616989795   -1.37590137354329
O          -2.83268898840384   12.35195899486665   -1.99181841047013
C          -3.57951858030408   11.08024040138651   -0.05974573744222
C          -3.63288651351487    9.68435065910092    0.13896660704377
C          -4.12405876118307    9.45124015208713    1.48013133597042
O          -4.28677959968997    8.44022254931648    2.13185809715078
N          -4.39186149948918   10.74287384915074    1.98580911006507
C          -4.93174665122584   10.88244977637470    3.31752679159703
C          -6.45585761880074   10.97892395316477    3.30728273685283
C          -4.07528159734959   11.72533665423908    1.07486444987265
C          -4.19166604506778   13.13383599361521    1.14561779275861
C          -4.81861573272193   13.88841068712395    2.09006196668840
C          -4.98253704084701   15.29204754638357    2.14598711854373
N          -4.47509979955109   16.30093583440143    1.35801272248269
C          -3.61588113816334   16.20274421265429    0.20094893640029
C          -4.40183555989638   15.89117925420078   -1.07044310015730
C          -4.92141408276343   17.56816968508503    1.78297990619509
O          -4.59746530987673   18.60757612413854    1.24427069434707
C          -5.76430416604854   17.29855915806940    2.92663438285720
C          -5.77046527378914   15.90139690047042    3.12548877972210
C          -6.60859513591275   15.60438484296608    4.26255800242677
O          -6.91432360009366   14.55877868421947    4.80123914326691
N          -7.06918668918505   16.86637167861758    4.68358051661600
C          -7.91936301347842   17.00298882728068    5.83992822856733
C          -7.13960627072818   17.45676818062268    7.07193828016944
C          -6.57423110376977   17.88639906103776    3.89875226876330
C          -6.89148484563833   19.25075454348617    4.08760281292190
C          -6.39411006193246   20.24216918783769    3.29969964113532
C          -6.72494205753264   21.60549944636367    3.48974827061282
O          -7.55517634590252   21.99381842388495    4.48372111429323
C          -7.69098796561712   23.33832291633916    4.42297023003187
C          -6.94456922505567   23.84093991782871    3.38072740425267
C          -6.31680880943057   22.73281136819781    2.77092893423164
C          -5.46118066757975   22.77193249032692    1.66135785958838
N          -4.76102219360127   22.85309700146955    0.75709951379515
C          -8.52615669442448   24.03012815980402    5.36746645425495
C          -9.20907073830438   23.42977300810191    6.33953963271095
H          -1.98577970849775   -2.94985587311029   -1.32845205762709
H           0.28191873961447   -2.32388806107477   -2.62229873887550
H           0.26194888355607   -0.69347704064929   -3.34457151911749
H          -1.67143625597496   -2.95672161591665   -4.07741782906919
H          -0.28459373963848   -2.44308859741851   -5.04491776101144
H          -1.64341473136809   -1.34227360232812   -4.79465521367469
H          -4.94114954345140    1.51929527369233    2.13383735776910
H          -5.48738997851219   -0.17367205412590    2.17349568108985
H          -6.41881241749765    1.90608251731274    0.12185929839044
H          -7.35008434057362    1.33587231534685    1.51316647631282
H          -6.94156332921053    0.21980235806700    0.20766506176654
H          -4.35923234891841    2.93591050149334    0.48788631188495
H          -2.08773987946800    2.91776007170315   -1.57059461096170
H          -7.15591472341298    7.49292649067741    0.47339659399191
H          -6.98769255442358    4.99490795093319    0.93393696837407
H           0.90455389262076    4.89420737774404   -3.03000151319547
H           1.00411117994580    7.43891815449080   -2.87151861382980
H          -1.50114433284543    9.19999895015354   -3.30241621857228
H          -2.09386297149310   10.85471774706598   -3.62102040654455
H          -3.80945347808427    8.31479054465697   -3.73478087914334
H          -3.19782737018225    9.20136795564166   -5.13527881101004
H          -4.37668976196268    9.95663347494218   -4.05715091268399
H          -4.47898668803111   11.74627038698309    3.80811001304264
H          -4.63482481698154    9.97803472828398    3.85788775116370
H          -6.79638398228607   11.78092727897817    2.65671783537940
H          -6.81881151635525   11.17402217746808    4.31221924693380
H          -6.88029723886302   10.04303231444574    2.95221165265246
H          -3.74896127643801   13.60561622224144    0.28125329037536
H          -5.31890659597095   13.40824436232861    2.91754549959493
H          -2.83959365697958   15.45707036831438    0.38435875318585
H          -3.14160038946031   17.18350973473838    0.09708560382511
H          -4.99772550420449   14.98874539787100   -0.95597462221716
H          -3.71473827187409   15.74672278072949   -1.89898561082272
H          -5.06738634721789   16.71859030043264   -1.30427595610387
H          -8.34268710420172   16.01057939285575    6.02018899518662
H          -8.73430101918248   17.69792854288854    5.61706067773050
H          -6.36099078510600   16.73422444885725    7.30349253150423
H          -7.80872618604021   17.53191987721857    7.92479075619638
H          -6.67317884271034   18.42508658451863    6.90440118817926
H          -7.56561938174254   19.51170447055546    4.89107035423383
H          -5.71725709583247   20.01829389856823    2.48610240946373
H          -6.85531019080030   24.86706040729093    3.08749358659874
H          -8.56579569381335   25.10146959675026    5.23243701623866
H          -9.17053963415127   22.36220042278704    6.47363486588815
H          -9.82341941135549   23.98648466987824    7.02399038383888
