122
 SCF done       -205.441090569191          0.000809081401
C           1.09186461226915   -0.94768266303826   -5.54628125682316
N           0.24698110867218   -0.37706950135111   -6.44080253801469
C          -0.20946094583613   -0.97107562720618   -7.67241256487062
C          -1.25833537681434   -2.05003234363791   -7.41834720257448
C          -0.21370260724650    0.88052387939507   -5.98391409376747
O          -0.97833959374892    1.57928681999855   -6.62193450700219
C           0.43603739619677    1.04845511861216   -4.70733422296591
C           1.23867278041293   -0.10785837208406   -4.47395249970782
C           1.89158109311563    0.05019682469548   -3.18726167307158
O           2.65468986800705   -0.65585643831248   -2.56961028921455
N           1.42789646104552    1.29582560561053   -2.72230026147145
C           1.88855592443502    1.83922926517277   -1.46679131039962
C           2.96841730689903    2.89955861588975   -1.66592358509419
C           0.56964729834189    1.90288099950195   -3.61182577036969
C          -0.04245150641013    3.15309076576158   -3.37632114769338
C          -0.86674693540036    3.75570444247660   -4.28259531250416
C          -1.50643883612000    4.99598962176908   -4.06860577826626
C          -1.46341741966593    5.82561994048757   -2.95824915269353
C          -2.26132931871996    6.96748760696191   -3.19738427646778
C          -2.83755617652785    6.79861857235112   -4.54566606979226
C          -2.38321366400195    5.62172115501653   -5.04895886319493
C          -3.76882657344546    7.63422077706172   -5.17469096479213
N          -4.56820189878911    8.26094026563190   -5.71077557925374
C          -2.48173466145303    8.03491656622382   -2.34253639792243
C          -3.18106105021702    9.22900606277142   -2.62003245617261
C          -3.25212977224954   10.00112631041302   -1.46545656363315
C          -2.55194861958663    9.28312441250497   -0.41603647126384
C          -2.06302607865794    8.12265395984088   -0.93492900053725
C          -1.31042919589148    7.18515666692856   -0.22190904529051
N          -0.68798393463280    6.43449103872447    0.38678181213233
C          -3.90287839968776   11.25530253111441   -1.41754414107132
N          -4.38635871554873   11.91110198823861   -0.31426923550383
C          -4.35264863771523   11.48728740758119    1.06552911631841
C          -3.13235236713138   12.04637988609962    1.79340357271447
C          -5.03253863965559   13.11466002627472   -0.65680563645767
O          -5.56365636782655   13.83964052465256    0.15857654898937
C          -4.89936953070224   13.19961685260948   -2.09534110771049
C          -4.21629272716139   12.05203647771419   -2.53240679222486
C          -4.01249284033161   12.16581003341233   -3.96553198603014
O          -3.44215422488264   11.46352307091149   -4.76938000831611
N          -4.62614723412163   13.38774596609082   -4.30123194557345
C          -4.70758303286697   13.81806705597372   -5.67629404521285
C          -6.07268430817907   13.50777937815299   -6.28500553449088
C          -5.16757404885574   14.01887856242313   -3.20776164876873
C          -5.83680235966601   15.25186293085243   -3.26230438938803
C          -6.40403538704051   15.84301325303562   -2.16348564342766
C          -7.09101935224782   17.06973150255583   -2.18535290436359
C          -7.74433655909196   17.64622041783071   -1.10157505294039
C          -8.36108038464800   18.84846168386451   -1.51235802776258
C          -8.01254075367450   19.02689170597366   -2.93440096564693
C          -7.26270292463436   17.96273422456530   -3.32280807580051
C          -8.28986111035233   20.13534515024900   -3.74500606199339
N          -8.43928508792402   21.03380502136200   -4.44476861073024
C          -9.16919248244802   19.69148392455382   -0.76762696921531
C          -9.91615133227344   20.79482917839530   -1.23765355337872
C         -10.57542475416075   21.39369622661783   -0.17314257859540
C         -10.24480054927634   20.63921457641183    1.02439985328947
C          -9.42524779864862   19.60886833076863    0.67786145773678
C          -8.91288164185002   18.66740486550925    1.57621532069971
N          -8.51656796966467   17.91686928953411    2.35069651818710
C         -11.41772605138130   22.52366843230119   -0.32621922272601
N         -11.83180537606643   23.40260060779832    0.64554203142105
C         -11.52062321003282   23.39084253647504    2.05504393280450
C         -12.56940075262337   22.62037634827575    2.85426549381407
C         -12.62463944277074   24.43979628085504    0.11896294172023
O         -13.07680645226532   25.33996435146704    0.79713312400994
C         -12.70996285176611   24.14731912923638   -1.29382400266392
C         -11.95671010842939   22.97319499124181   -1.53685643520696
C         -12.08984919752607   22.64302228996058   -2.93861997122622
O         -11.68700943529904   21.72121335203096   -3.61327270225400
N         -12.90107648996386   23.67979604809084   -3.45999027246807
C         -13.18543040140994   23.74495023250392   -4.87271499077258
C         -12.25382978159809   24.72029315985448   -5.58811546892932
C         -13.27010108950985   24.57588641165233   -2.49624418807578
C         -14.09938952142798   25.71775260320700   -2.74874614611770
C         -14.44816978828466   26.58640608397732   -1.79598810517578
H           1.53650095672980   -1.90725248608414   -5.73492025917850
H           0.64715322751387   -1.39017629878655   -8.20767894673806
H          -0.64313668573573   -0.16152912841754   -8.26503058929848
H          -0.84640661920769   -2.85055836206587   -6.80833416303646
H          -1.59393531449047   -2.46812616489688   -8.36302832988537
H          -2.11487085803848   -1.62455735570459   -6.90202879072769
H           2.30274660667861    0.99497295587228   -0.90856451078034
H           1.04097425025709    2.24762924296031   -0.90966177941284
H           3.82440739419009    2.46656589022352   -2.17777921547200
H           3.29380918239180    3.27622632416890   -0.70048300539966
H           2.59529930242174    3.73239414974979   -2.25781309236398
H           0.15487427711575    3.64019377160322   -2.43290974447231
H          -1.05541893036963    3.26585811724420   -5.22893599374351
H          -0.90392182997632    5.65833221478698   -2.05963664212897
H          -2.62308167065842    5.19396996973479   -6.00466787657366
H          -3.59056303164676    9.49395624347637   -3.57403010199193
H          -2.38815796647393    9.62192305337557    0.58852358107571
H          -4.38491255004846   10.39676460729800    1.10632305088075
H          -5.25768397990610   11.88536544889572    1.53447657825371
H          -2.20898991641530   11.76578744667442    1.29068120715592
H          -3.10697169959296   11.67298642179497    2.81345547289758
H          -3.19031420354513   13.13153181971095    1.82210928325308
H          -3.93383316180213   13.26120310005567   -6.21202935945107
H          -4.48126002761993   14.88610913967406   -5.74024302774569
H          -6.25245022671049   12.43596608164486   -6.25939713761251
H          -6.09814536788271   13.83902093909461   -7.31934948705028
H          -6.86896322250913   14.00676320014010   -5.73655559162684
H          -5.90834600252933   15.73777913217998   -4.22432439435868
H          -6.34112793226662   15.34256903469491   -1.20592229828212
H          -7.80272563768618   17.22226441050812   -0.11787884899972
H          -6.84669647451451   17.81718241562741   -4.30216395657076
H          -9.97077863889812   21.10752357538608   -2.26087490320434
H         -10.61460598810089   20.81754887670413    2.01509262810089
H         -11.52443038678048   24.43581387721947    2.38022908872747
H         -10.51873272012520   22.98200384551101    2.19946514444383
H         -13.53114245631222   23.12033519349055    2.77044800168368
H         -12.28548069068235   22.58622773381198    3.90259752858453
H         -12.67958695316135   21.60310999366475    2.48420327281949
H         -14.23308528779155   24.01726714926066   -5.02598589613184
H         -13.02193524894100   22.73499954999200   -5.25928594807613
H         -12.35766272135639   25.72585031423534   -5.18571180626872
H         -12.48677697788768   24.74055156884874   -6.64900497161242
H         -11.22187498423992   24.40115709539034   -5.46535504443044
H         -14.44414894929286   25.85452201357052   -3.76440568048346
H         -14.11616577596085   26.47200870674147   -0.77746785345799
H         -15.07609232026110   27.43201991775878   -2.01759204113617
