99
 SCF done       -190.162702003892          0.000727821084
C           8.04307348923219    2.59206089832560    2.18793193932631
N           7.04350868815205    3.05169559761913    2.98563548552606
C           6.83309161841252    2.69840719825949    4.36705203762049
C           7.79334512074672    3.44517270320779    5.28893197695804
C           6.24070311094608    3.99961804891526    2.31186916223563
O           5.28405366166752    4.54797888969548    2.82671952251529
C           6.82871150323201    4.08474309534390    0.99851092363084
C           7.94738901578576    3.19212257424723    0.96332735398531
C           8.53922922668243    3.27155331482205   -0.35778761926875
O           9.49148872818165    2.71966361251719   -0.86053769966565
N           7.73674282245545    4.21308705989344   -1.03432856748484
C           7.97505894225571    4.53640677147195   -2.42015759932552
C           7.01115769687566    3.80199501121695   -3.34892472288938
C           6.71988815443328    4.69702207261241   -0.24342168871575
C           5.77151508240438    5.65674479957385   -0.68744831623929
C           4.77649618897262    6.12097231338756    0.10625228926074
C           3.82447339415024    7.06575393035063   -0.36007014786862
S           2.53051090710978    7.68055320225044    0.66424449155886
C           2.03113725216838    8.60572393136039   -0.74696552212687
N           2.80903033591416    8.40061827723184   -1.77692951965065
N           3.78193604523333    7.56553403002252   -1.56518982724912
C           0.89024434764801    9.45117247493907   -0.72603469927797
C           0.46488023307052   10.10441867457076   -1.83244390238060
C          -0.67709717570868   10.94344242309149   -1.90298054657056
S          -1.19032422004956   11.54262208015770   -3.44528610007535
C          -2.51481064866002   12.39265734099018   -2.72620188138135
C          -2.57671203501296   12.21415937119875   -1.36038161906528
C          -1.52521579445232   11.39204430809608   -0.88992782700064
O          -1.28558668334672   11.04830673159508    0.39451488370843
C          -1.73118161077611   11.95618851682758    1.39088252560858
C          -3.19878048381261   11.76306970322454    1.77347572589861
C          -4.10813323426747   11.68207897392800    0.54571368808561
C          -3.72484648420963   12.70483126339783   -0.52581818710958
C          -3.42319096699036   13.14016780595198   -3.56656351705347
C          -3.70302047536314   14.51042324508893   -3.39478823136796
C          -2.97815621130570   15.34684957971210   -2.42041156220265
O          -2.16802421374509   15.00981761207405   -1.60711024905577
S          -3.46819714641821   17.05488251196076   -2.63293312216750
C          -4.61491282613829   16.66758752942695   -3.96056131047213
O          -5.20847208587903   17.52353127147378   -4.54560982429688
C          -4.61200132392234   15.20987413295999   -4.19688356261192
C          -5.34032159789686   14.58311997395578   -5.23230635117028
C          -4.98011730595684   13.24232151556908   -5.45198316099739
C          -4.07568557068960   12.55000587257528   -4.65643074593384
C          -4.07477640948243   11.14010266563736   -5.11794595457924
O          -3.52737868219019   10.18045604981257   -4.67383394344159
O          -4.91695019582725   11.07289366357839   -6.20285285423243
C          -5.50024022211713   12.28959380744434   -6.45830786243568
O          -6.27677986374170   12.45536693740243   -7.34855483359092
C          -6.37823316433892   15.17030296074631   -6.03479273313033
C          -7.31105167242233   16.04176742399680   -5.60191937560131
C          -8.36760247602997   16.53681306450362   -6.41484245777126
C          -9.38931193146526   17.36635715331724   -6.02392284590385
C         -10.29710424652582   17.69073022931535   -7.04991952215327
C          -9.95544808417535   17.09334516654294   -8.26056552987782
S          -8.51881874234145   16.13437176920644   -8.10376655470623
C         -10.60427112614250   17.18194088985169   -9.51272408167544
C         -11.74596167092351   17.89194572855603   -9.86875675112202
C         -12.60642550869404   18.74098403419267   -9.04143444668633
O         -13.57532715255734   19.30049059799375   -9.51162183641759
N         -12.34874764907624   18.93077255816574   -7.69553244855987
C         -11.43030127786230   18.56159968426357   -6.72930961086111
O         -11.59795080419774   18.98406998331064   -5.60410033194878
C         -12.07396302221341   17.73169450958785  -11.23075186290252
C         -11.21644121501366   16.91960925753234  -11.92407662824064
S          -9.96119297743746   16.32552056446162  -10.87873395805230
C         -11.22914805350343   16.53033519598178  -13.30966506388407
C         -12.13058122424137   16.93255129951180  -14.20226920126190
H           8.74662360669906    1.86336369227664    2.54614068993495
H           6.95490391262757    1.61759968493234    4.48235262975393
H           5.80155362996044    2.97208014131473    4.60443322015726
H           8.82568450702155    3.20538880468147    5.04376222215166
H           7.60527865246976    3.16720156103974    6.32212539933994
H           7.65071068511023    4.51789495805348    5.18492466376284
H           9.00043621870278    4.21903576121655   -2.63045832433379
H           7.90296379586955    5.61813523949933   -2.56193333836137
H           7.11883065172476    2.72760022622675   -3.22078824192164
H           7.23428446629984    4.05288109763872   -4.38214002494049
H           5.98005057439473    4.07578705955389   -3.13738731679260
H           5.84241836681496    6.03332073280830   -1.69692817518614
H           4.67151085719542    5.77470279988241    1.12492367329491
H           0.35844951484473    9.53612850527314    0.20750965063229
H           1.01814597741549    9.96803970748832   -2.75171081354876
H          -1.55059246797661   12.98162854155306    1.05161951847333
H          -1.09189024119469   11.76042437166002    2.25612781847248
H          -3.48957471075575   12.60645325146158    2.40209995371508
H          -3.30883100940397   10.84939619907767    2.35930035392852
H          -5.13988917149946   11.84923506308583    0.85907454824864
H          -4.05380278281155   10.68119866908919    0.11193501834538
H          -3.47409129105741   13.66016578425781   -0.05668591245763
H          -4.57706017990995   12.88272870170869   -1.18660326958786
H          -6.46109417451502   14.77334608104655   -7.03868614965034
H          -7.32142468703664   16.38927985500051   -4.57887446035585
H          -9.50377340289494   17.74907616711240   -5.02573344330658
H         -13.05686474449214   19.54164097766238   -7.28776183721325
H         -12.93080140768319   18.21831792802942  -11.65836914140201
H         -10.43107638759050   15.86276624250458  -13.60632687654998
H         -12.93691491936797   17.59613839807896  -13.94350026801904
H         -12.08467393750726   16.60511835669013  -15.22563545283634
