106
 SCF done       -215.573979461160          0.000488203644
C         -13.04230820532398    1.43389027485484    0.77286268496290
N         -11.85760488161079    1.67761204886858    1.37981395167188
C         -10.92041329217212    0.68454855149392    1.84503157004360
C         -10.13219830866797    0.07767200530691    0.68762137185916
C         -11.58547157976839    3.06548150202682    1.43598470718787
O         -10.57904522060350    3.52815714690744    1.93779636112533
C         -12.73601184996975    3.67454117729939    0.80905072043298
C         -13.61642990978799    2.62892643232474    0.41447554291851
C         -14.78283701328670    3.23333168812829   -0.21031462565203
O         -15.77864477344940    2.75795783948077   -0.69933366351960
N         -14.51973608298609    4.61736251458409   -0.14891210629222
C         -15.47672213400926    5.58273448334427   -0.63969031758017
C         -16.30936947958695    6.17842921562390    0.49206590179133
C         -13.31936861764242    4.89631588006819    0.45335048593748
C         -12.82900452110977    6.20859859888132    0.63632615937173
C         -11.63057932810652    6.44699705663479    1.24828728377298
C         -10.99298810884550    7.68722823125105    1.46502474586585
C         -11.09089535421410    8.93483899502922    0.84446560606454
N         -12.02140525481581    9.44615525318489   -0.07836322564019
O         -13.11099365245327    8.90559397422761   -0.20122982967854
O         -11.69082849077893   10.43830189888371   -0.70273105087568
C          -9.96957711666570    9.74378741932163    1.23717704457099
C          -9.17995438446700    9.03970633841957    2.08855373694452
C          -9.78492631198591    7.76384400092952    2.32150963042419
C          -9.42057556856725    6.85591511298419    3.29104796809618
C         -10.27491861428793    5.92541773145157    3.97241854802435
C          -9.58723388196283    5.38576478738046    5.00825608484521
C          -8.24891603747941    5.92230491993018    5.02033762214768
N          -7.29690092089943    5.43192039569377    5.93540292580827
O          -6.25441380382820    6.04436796737497    6.10057259479684
O          -7.58066532590688    4.40581688697189    6.52703021380118
C          -8.10555157435713    6.81910092564547    3.96976908805379
C          -6.97013856592632    7.44903621096314    3.39515555720291
C          -5.86594270750735    7.91020301658480    4.03924172209305
C          -4.76801985009263    8.52662302111156    3.38904098214472
S          -3.50379029786266    9.18208999697066    4.40097131695692
C          -2.55819127380044    9.73153881356997    3.04253479388667
C          -3.20168927450308    9.39425958937851    1.86182958006264
C          -4.44356935103487    8.73641572732120    2.05298781974540
C          -5.07838566634164    8.46920441622136    0.75890229525265
O          -6.15995151065788    7.97772020994352    0.53737889141765
C          -4.11186890766653    8.96535790857613   -0.29982655416073
C          -2.91853851678347    9.55359325969602    0.42993343277511
O          -1.94448065340197   10.03315428743866   -0.09317982877063
C          -1.34949976545728   10.44472965173455    3.26207893318780
S          -0.89845414357104   10.92268217701130    4.87789337777308
C           0.53099131927271   11.71475347139865    4.30809655971411
C           0.64605374978141   11.58496043914874    2.90977018548182
C          -0.42674560179093   10.87915068450114    2.33711938365301
C           1.77812726822447   12.11959936424225    2.17376634087242
O           2.80455301964253   12.54742955235326    2.64091834138128
C           1.61692429348844   12.10056749000582    0.62374403718324
F           0.48622467951578   12.70021646716321    0.22587205667362
F           2.62902928810374   12.72536694043921    0.02888714206158
F           1.59156873840714   10.84455312210963    0.14702706979002
C           1.36722667981002   12.46232291192674    5.16429805050468
C           1.22181774708813   12.50587711449738    6.51458389539414
C           1.97788455962858   13.32185361561334    7.39837322470129
C           2.46173549428116   14.60851160721513    7.23352046391175
N           2.28950992389260   15.50963308533531    6.15505262868287
O           2.84512110312828   16.58714608785715    6.25193502234655
O           1.57652686340131   15.18762663226629    5.22240798941994
C           3.05595824752062   15.06021340325091    8.47110204632770
C           2.90951128687689   14.09690623276048    9.40921762429114
C           2.27216020010804   12.95509940123268    8.80332816998706
C           2.11767207632523   11.71698968693651    9.36817395431294
C           1.99155717174131   10.45626450126687    8.67783534841778
C           2.09712561237334    9.46047241592287    9.58263805417134
C           2.24164923175570   10.03836846240271   10.90838443188123
N           2.24069754203851    9.20213407296431   12.04854903982302
O           2.68103880742097    9.62683182147087   13.09934927087843
O           1.78802831962326    8.08269584172547   11.89542038978922
C           2.23902865176410   11.40964939044920   10.81532508100113
C           2.11993412919247   12.42785756440064   11.82824141947344
C           2.70267263792287   12.44604921908146   13.02754599354354
H         -13.40595321392690    0.43156616617094    0.64075569702530
H         -11.46515527972355   -0.09361636203637    2.38633653245812
H         -10.24086836377276    1.19455136019244    2.53291112830434
H         -10.79933831874168   -0.41185425362772   -0.01857423296194
H          -9.42726085559123   -0.65569981786167    1.06795968667638
H          -9.57843897294271    0.85335214717561    0.16439502354863
H         -16.12845889064769    5.03873997489558   -1.32860079040657
H         -14.95465274381246    6.37008207764203   -1.18836147981113
H         -16.84548831860297    5.39173235554164    1.01777333396523
H         -17.03174645077469    6.87766781528061    0.08161029468952
H         -15.67890553683610    6.70908153613835    1.20153378162897
H         -13.43482633247129    7.02972232964998    0.28738898769576
H         -11.07545951054336    5.59105923743129    1.60919859863240
H          -9.82688512194634   10.75105444195594    0.89314113719452
H          -8.31599606805099    9.41398747607135    2.60078120878834
H         -11.31511686156782    5.77636994364085    3.76296278508424
H          -9.94014996710646    4.67806065067079    5.73416097182780
H          -7.03063069580310    7.58450187891017    2.32219791536163
H          -5.79235384132832    7.84593223178439    5.11478854786615
H          -4.58444746241090    9.71141674150556   -0.94275868877764
H          -3.80077132210427    8.14899685250305   -0.95589007882492
H          -0.54465981345310   10.67360184443381    1.28744090798938
H           2.15938552621004   13.01187594634091    4.67770845032040
H           0.48289865994762   11.86304351206623    6.97968445948889
H           3.51895253209682   16.02267172587866    8.58006945939398
H           3.29462352848256   14.11899698102652   10.40916692170118
H           1.95337166539195   10.34299383374114    7.61283371292453
H           2.08848852341805    8.40145794084753    9.40668586528998
H           1.48440111760057   13.25665835494884   11.53688568456537
H           3.37662609092180   11.67641546248803   13.35642403323600
H           2.51833334203284   13.25774947390415   13.71090687704379
