110
 SCF done       -216.751108425827          0.000429329235
C          -3.85310085954081   -0.60110453976965    1.87462537105052
N          -5.04124070965106    0.04219928184303    1.94506587339496
C          -6.24176015358098   -0.43968062248866    2.58376933774025
C          -6.25957194387668   -0.08824505974023    4.06981995350714
C          -4.95584289861871    1.33943324025577    1.38426553469067
O          -5.91034850722399    2.07902904032336    1.26487686947921
C          -3.57274950689305    1.45903267815243    0.99044023656710
C          -2.93110114853502    0.22036590915862    1.27450201951279
C          -1.55770216098430    0.33029556438432    0.82887568556371
O          -0.63460403879412   -0.45029439043220    0.83432672102920
N          -1.45914168938400    1.64550723024128    0.31167015215757
C          -0.17924148955064    2.10548116848818   -0.17418430505487
C           0.54653066347944    2.97641813995033    0.84861194926914
C          -2.64564642459785    2.33598506317537    0.43150849051923
C          -2.94954524610047    3.69256280968115    0.14986047404694
C          -2.16733317354074    4.64159571131429   -0.43451091119510
C          -2.56193867231451    5.99835345917806   -0.54807207617433
O          -3.71111337834080    6.40378437416743    0.01708785832553
C          -3.85931986472411    7.72967224032107   -0.16600139111243
C          -2.73052117441185    8.22808164940612   -0.86736450985170
C          -1.91297286612497    7.10377930949008   -1.12484379132423
C          -0.60838947271185    7.07161582073385   -1.84376706608079
F          -0.13656733778298    5.83304124287565   -2.04521013408674
F          -0.65854530845740    7.63551418714862   -3.06107317651702
F           0.36978184752337    7.71796751919346   -1.17154089911183
O          -2.59039962887846    9.53040260936098   -1.04378368587276
C          -1.53921639810680   10.10155364673998   -1.80065284465847
C          -4.92347724018353    8.46042277477219    0.41058619592066
C          -5.30478158247243    9.76649150561463    0.09325350462661
N          -5.13319262145689   10.44189914528760   -1.12299569202361
O          -5.34412176315491   11.64279397434760   -1.13818235360355
O          -4.82918510914478    9.78903383886256   -2.10976142893969
C          -6.09809118123843   10.29414796569879    1.15890016713664
C          -6.19638075370831    9.35484988792745    2.14021237205127
C          -5.54813356188387    8.15666671746045    1.70808867634280
C          -5.62370452622086    6.92221229164134    2.33598574806701
C          -5.80199456357015    5.67501093030652    1.67258826055824
C          -6.13154766590302    4.72498340927263    2.59385508947390
C          -6.07387317518453    5.30908842831074    3.89796630926340
N          -6.21356835873373    4.55044581572101    5.06357737449336
O          -6.03225143975561    5.07675909450852    6.15316492175964
O          -6.50061399243046    3.36697627312424    4.93354567529198
C          -5.77828114478148    6.67173111030845    3.77815207301507
C          -5.57677580192928    7.58722664779825    4.82672878208028
C          -4.85670463769317    8.74449912340448    4.73868459345414
C          -4.77881090010542    9.63040510359222    5.84139414588439
O          -5.41767004416552    9.29175175012315    6.95891063877590
C          -5.24754778987006   10.24511683841505    7.90120033390475
C          -4.45548300736913   11.27690049212406    7.35884940080694
C          -4.14894064664982   10.87283334640850    6.03539078798766
C          -3.31047954028180   11.57522905455767    5.02514290731001
F          -3.09423163878338   10.85095033062744    3.92174115522766
F          -3.85013048584741   12.73559251396220    4.59861296763078
F          -2.08483888483311   11.88917175308437    5.49364620732907
O          -4.14913391231252   12.36219690299866    8.07345247562587
C          -3.61394436201558   13.53043202645476    7.47458909763296
C          -5.90653730684450    9.93437435912520    9.12154190182896
N          -5.76366537959658   10.45657673507333   10.37896933281725
C          -4.98764021020907   11.59717801801177   10.80216657006741
C          -5.78549049743143   12.89066794253793   10.66423120726003
C          -6.52654962869018    9.73495786642915   11.33311533077012
O          -6.54421495447839   10.01168572537356   12.51194187489359
C          -7.18367778240298    8.70725856640863   10.56182386416212
C          -6.80041329303631    8.86380900298614    9.20978445218713
C          -7.51229532965668    7.87302458801210    8.43476424776568
O          -7.61477950727987    7.67600970891557    7.24407710482117
N          -8.22201763161846    7.11956291029788    9.40299035443975
C          -9.02077648167738    6.00007704089231    8.96541619487962
C          -8.18029318146017    4.72996937212342    8.85192158751380
C          -8.02847904430319    7.60437449490727   10.66503585048525
C          -8.56490840587207    7.13019535410947   11.91165454653593
C          -9.05751405140252    5.92678572637084   12.20674673583034
H          -3.73858706298544   -1.60084676070037    2.25179253378692
H          -6.30411285619052   -1.52175287049083    2.44154424578848
H          -7.08551915837418    0.04036474372855    2.08121563850000
H          -5.38971669487467   -0.50759278315720    4.57113654997066
H          -7.15600152536578   -0.49422411672135    4.52943334637756
H          -6.26102046512055    0.99014900115054    4.21134460624078
H          -0.30547628300652    2.62229815228057   -1.12796051018064
H           0.40759991312056    1.19839312429635   -0.35067687122718
H          -0.05181458078072    3.83933648127291    1.13149670909298
H           1.48675520112040    3.32405368485223    0.43022943717238
H           0.75747848269735    2.39484305008284    1.74263930866932
H          -3.94101929722010    3.97740463755060    0.47792330448291
H          -1.19925321854786    4.39630016085897   -0.82854581540281
H          -1.70153263857810   11.17589010669235   -1.73166017369746
H          -1.60058761679579    9.79706881190568   -2.84652135398881
H          -0.55980293397502    9.85590454778700   -1.38676172525323
H          -6.55060722409433   11.26701349206217    1.13392558327987
H          -6.77922082104335    9.42731318817826    3.03765881291456
H          -5.82834616488843    5.55390465217283    0.60831444063077
H          -6.39419078132741    3.70302957142839    2.39451923680535
H          -6.01899295826460    7.32400294244748    5.78278188315640
H          -4.31705858568800    8.99389583043667    3.84067359037547
H          -3.64082705210920   14.28210409199374    8.26188158324715
H          -4.22334388899790   13.86619248454646    6.63404693777788
H          -2.58075033660180   13.38500006359031    7.15634385426220
H          -4.06626006577757   11.64398925252551   10.22359504579799
H          -4.75080919927409   11.42827008738479   11.85656459709139
H          -6.06718794303025   13.05484792201895    9.62766491680638
H          -5.18619216376888   13.73014955618646   11.00424093158240
H          -6.68586499672067   12.83698055181833   11.27119143254869
H          -9.40004770103816    6.26145100617671    7.97262863477060
H          -9.86522403457276    5.87406569212157    9.64569682733716
H          -7.40376949277544    4.86968219880484    8.10303562680912
H          -8.80907511223866    3.89736832022900    8.54853302667936
H          -7.70426005830241    4.48722622116789    9.79967629690060
H          -8.48627634741272    7.87484522026613   12.69448115778486
H          -9.10636108466347    5.11243934060491   11.50696195061521
H          -9.40795867110889    5.71473459996946   13.20243110513638
