92
 SCF done       -161.065940550739          0.000516381220
C          -2.70014676614379    0.51299623582354   -5.39702567238379
N          -2.26694481485766    0.55443877792406   -4.10824891274597
C          -1.72117487977893   -0.55479305715097   -3.36685990934977
C          -0.28466609821101   -0.85665540259346   -3.78587079414426
C          -2.35020413902167    1.85970931165920   -3.57863691481560
O          -2.02892685114028    2.14224633620189   -2.43800822586299
C          -2.88539185510041    2.64345977168445   -4.66268908073386
C          -3.09360684059150    1.76525733786416   -5.77532778854508
C          -3.62923481913531    2.55045177706095   -6.86871559368477
O          -3.96503944009778    2.26399777293177   -7.99536155211548
N          -3.69507005535523    3.85973556584285   -6.34728750028901
C          -4.25294202795798    4.94117410061898   -7.12102870217723
C          -5.68629336288567    5.25878797640859   -6.70086023942193
C          -3.25977945122043    3.92386674245754   -5.04216348640743
C          -3.20086123157093    5.12864430087235   -4.29223995143942
C          -2.83109633734496    5.16035662781224   -2.98916067172940
C          -2.74493832527848    6.34464999886587   -2.21454016436019
S          -3.00026107419794    7.93628697107535   -2.88593489677373
C          -2.72024610931206    8.70350262334643   -1.35430352768621
C          -2.44361482240085    7.74628611481529   -0.37692712662255
C          -2.45434672848496    6.43010690609093   -0.87090138914574
C          -2.15275400585036    8.02254896238255    0.97011744743721
N          -1.90493126257847    8.19820998302830    2.07660743837983
C          -2.78580031447745   10.12115663095687   -1.27821241532718
C          -2.73700232361321   10.84998723650319   -0.14020363206891
C          -2.78004766793639   12.27517455154171   -0.09258794827177
S          -2.93568165309830   13.06948180137523    1.44470079546966
C          -2.88743850174584   14.62281483159000    0.69711204311864
C          -2.93683554881117   15.78399057422073    1.60135943892632
O          -3.48370978509702   15.74603542237207    2.66885577318025
O          -2.29584320470939   16.89551973307587    1.18877771737444
C          -2.77524527148037   14.53086868739436   -0.68470788712347
C          -2.71108777145719   13.19161514307671   -1.11811601180565
C          -2.79206527819104   15.63122202962495   -1.62692406392320
S          -3.85049528471309   17.00267907065453   -1.42428803285273
C          -3.30850079246244   17.71024471610060   -2.92134617842749
C          -2.36539695294062   16.88792735629051   -3.53092963329935
C          -2.09025174739075   15.71342585239147   -2.79955401326439
C          -1.74583412915460   17.17135802411902   -4.76069876331596
N          -1.22376671725445   17.34714615835156   -5.76626246344507
C          -3.79189808414708   18.95494458785757   -3.39182571114998
C          -4.75139715027825   19.67019931113674   -2.75138786741114
C          -5.22712890033432   20.92175645116795   -3.21485315203823
N          -6.24731929520199   21.62316233925571   -2.61075735427711
C          -7.03849073046688   21.19292957118129   -1.48410137311289
C          -8.07659843352536   20.14634441489029   -1.88230640483583
C          -6.51262776528420   22.83878785186208   -3.26563576273057
O          -7.37725819109825   23.61404728815273   -2.90807808075550
C          -5.55619053443998   22.87697440300470   -4.34907161472707
C          -4.78714425378317   21.68156962433862   -4.29161782418036
C          -3.81468104538171   21.72749275304350   -5.35654246329980
O          -2.94742807266467   20.95086372572244   -5.70558207301396
N          -4.05459415939910   22.96137889956660   -5.99134540875789
C          -3.29314649173290   23.35572568068004   -7.15147676925214
C          -4.05636532967865   23.09690908106745   -8.44820671022552
C          -5.09004007222872   23.64794037132630   -5.40490040890782
C          -5.53832476737623   24.93543370076048   -5.85217336527254
C          -6.55865632481552   25.58381057892854   -5.28608775008702
H          -2.70269780112633   -0.40792607693635   -5.95016872924782
H          -2.35519472557323   -1.43344885313683   -3.51787932707863
H          -1.74954023169729   -0.26763957670886   -2.31233721165100
H          -0.23856567916121   -1.11568577488795   -4.84144349173900
H           0.10266749106377   -1.68865804669096   -3.20468003503222
H           0.34522961536196    0.01251970967872   -3.61309508002515
H          -4.24208443943986    4.60252095779634   -8.16090053895405
H          -3.61598841118171    5.82616915328541   -7.03257846084773
H          -6.31457144151779    4.38216030092876   -6.83798653481157
H          -6.07945738672030    6.06700656481525   -7.31124240058494
H          -5.73005910549074    5.55535147154062   -5.65499538404783
H          -3.46014587072119    6.05218283324711   -4.79277807010402
H          -2.58294732491455    4.23964928346926   -2.47656550398836
H          -2.25544804552445    5.56690452307146   -0.26093019574268
H          -2.90102019090606   10.62361255372401   -2.22918237319699
H          -2.67330865254052   10.35166689485660    0.81588793045319
H          -1.83782788893190   16.78003139678742    0.34567892264223
H          -2.62869540943233   12.92322212776985   -2.15529459771534
H          -1.37727768880589   14.97453291128331   -3.12000905216673
H          -3.35255053786324   19.32683038562394   -4.30941983590547
H          -5.18003392002867   19.27626962548068   -1.83872358093624
H          -7.54490332899608   22.08864189544382   -1.11353456375371
H          -6.38169900768468   20.80997869206639   -0.69762456833019
H          -8.75383425560250   20.55995437699746   -2.62552675884448
H          -8.65431380077041   19.85135752235254   -1.01077403249991
H          -7.60021838268494   19.26298096345011   -2.30229560853870
H          -2.38438522895406   22.74712669518838   -7.13535225376977
H          -3.01299595628418   24.40939452696491   -7.06649630619659
H          -4.28200427027219   22.03726803439973   -8.53871544797781
H          -3.44945165889510   23.39643014930312   -9.29812172960167
H          -4.99088040546249   23.65351864397915   -8.46961500486688
H          -5.00611014229893   25.37588953251899   -6.68397776749807
H          -7.10268238643949   25.16482395165861   -4.45607097010500
H          -6.87007968550073   26.55064846217245   -5.64222885372102
