100
 SCF done       -176.353129156793          0.000667845567
C           1.90561348003601    0.34618924175058   -6.46460528357615
N           2.00560065495555    0.82432810844065   -5.19878523015480
C           2.73515014869376    0.21158415048551   -4.11699113275799
C           4.24075057943843    0.40295925124274   -4.27652435139355
C           1.34675900313743    2.06941476515690   -5.06436390696317
O           1.30459389505371    2.68995072052679   -4.02013074615972
C           0.80981037349042    2.32404147558112   -6.37892570980503
C           1.18060739804275    1.22871901371803   -7.21893688560909
C           0.63793111569198    1.47320503228038   -8.54050480844337
O           0.68187472043338    0.84228048718494   -9.57196176935206
N          -0.03563350516851    2.70391288632694   -8.40830281838181
C          -0.67653951826631    3.32084556211722   -9.54385941066821
C           0.18254109115199    4.42760886628334  -10.15133803694167
C           0.06041746369686    3.22109156878890   -7.13403345939290
C          -0.54111937952284    4.44078371266367   -6.73916653511492
C          -0.42629107582732    4.94842548825170   -5.48145792818292
C          -1.01629546915744    6.16120920442390   -5.04815769335301
C          -0.88283149448213    6.71511289086364   -3.78948676769224
C          -1.59774839223514    7.94291455779040   -3.73523269522214
C          -2.21921235908370    8.11023641174124   -5.06267636936079
C          -1.86441230599449    7.04753401353129   -5.83178307419150
C          -3.07046036850653    9.14263149947716   -5.46855931217738
N          -3.78892091221112    9.96571300374998   -5.82727104038138
C          -1.69394087032795    8.83002775986252   -2.68752765166334
C          -2.32890201143223   10.10249694427505   -2.69487563132972
C          -2.19280999855610   10.69793170838258   -1.46408530597967
C          -1.46277456589081    9.77263788473405   -0.60986039002615
C          -1.15456336051885    8.65882132652044   -1.32656380992442
C          -0.47256499104064    7.54699822979089   -0.82350217624291
N           0.09207740467298    6.65490823650336   -0.37011930326711
C          -2.70756123957562   11.99770136490033   -1.12668713994550
C          -2.31098984835508   12.82483591167314   -0.09205696765176
C          -1.23154608962916   12.66162230706113    0.92300601633840
C           0.15434030859633   12.67453754482904    0.27213855083284
S          -3.16567544840875   14.31933372908183   -0.12682822648294
C          -4.09702407250353   13.84217264800825   -1.53036772419339
C          -3.72412653221219   12.59558762690886   -1.92764682397231
C          -5.04791450795609   14.77354639569611   -2.08753050594843
C          -5.93169110814085   14.53556979826370   -3.13526780613831
C          -6.13476080192373   13.28580661074341   -3.91695290471084
C          -7.29430556977667   13.37042453710046   -4.90083895128762
S          -6.86114414229278   15.93149533477790   -3.50232622112102
C          -6.04201227704544   16.88100641311888   -2.28967884968686
C          -5.12909926452117   16.09839857005244   -1.61979528939031
C          -6.39408570189946   18.23579590454473   -2.10394697609495
C          -5.70818079734794   19.22409500586927   -1.46258507891157
C          -6.44415378220645   20.44502687793950   -1.03703137473931
O          -7.55774195832563   20.77448612011978   -1.37451004293667
C          -5.54819288760354   21.12717992913953   -0.08019903259222
C          -5.78537550264118   22.23888964860666    0.67503411111949
C          -4.77834929455941   22.70127950825898    1.55191277455133
C          -3.54527664208799   21.99191001898276    1.63623293939668
C          -2.54871427672255   22.45228741937038    2.52010866442138
C          -2.76355447135450   23.56780873516963    3.27947447062556
C          -3.98159260378258   24.27123418482022    3.19206322441234
C          -4.96901473897228   23.84787782647938    2.34731748367483
F          -4.16440395778698   25.36238178610184    3.94814804252899
F          -1.81405243070682   24.00483033713882    4.11755753690404
C          -3.32546184106651   20.84795798165308    0.83535933684527
C          -4.30953685018829   20.42791623873037   -0.01875815853565
C          -4.34625836557521   19.33397654854019   -0.98799306972827
C          -3.23715160600952   18.72614014266950   -1.51746853676126
C          -3.26073648790208   17.89271096230876   -2.65357782789537
N          -3.21399794651400   17.24642580473706   -3.60093235495986
C          -1.92664368256943   18.92521324892121   -1.03855572065564
N          -0.84400889868608   19.02553480628640   -0.66962748970216
H           2.34907680573930   -0.59265468243599   -6.74067835755092
H           2.48789781815046   -0.85328051208213   -4.07540389237994
H           2.39251116847280    0.69694317953471   -3.19940809258823
H           4.59048956250482   -0.05005375664722   -5.20155407148852
H           4.76127972521734   -0.05947315948952   -3.44289202843970
H           4.48315345054066    1.46261284863673   -4.29389511515419
H          -1.65831156543409    3.70368836794676   -9.25032860961749
H          -0.81724196337739    2.52316740113557  -10.27887415158078
H           0.38146935864316    5.21324020083992   -9.42542270370308
H          -0.32651729591777    4.86156552125647  -11.00756612242896
H           1.13269702617558    4.01696451816303  -10.48375331331449
H          -1.11331965024743    4.97369765374348   -7.48437253080277
H           0.15380340495633    4.40922057588009   -4.74410257062380
H          -0.31416497603175    6.29728564607597   -2.98158136840078
H          -2.17006151678802    6.88532438649823   -6.84874131644300
H          -2.79194673786193   10.53197747556603   -3.55941619023107
H          -1.23273815480630    9.92147804016158    0.42715075575224
H          -1.37192709642561   11.73270519200222    1.47998704725592
H          -1.29829327394712   13.48536660870127    1.63688786649601
H           0.25263332929251   11.86217902909154   -0.44402408733550
H           0.92332979074450   12.56430164727649    1.03228320757535
H           0.31492585464117   13.61508837136380   -0.24970593615735
H          -4.14950976544501   12.08362967722971   -2.76664920022966
H          -6.30730074013969   12.45920261065423   -3.21982998539290
H          -5.21609843814010   13.06350854489654   -4.47001745560814
H          -8.22849635841802   13.57038799122575   -4.38018058080398
H          -7.39037119602560   12.43096562482805   -5.43825619371386
H          -7.12469813705738   14.16431954846058   -5.62475712575975
H          -4.55272341431953   16.45367006842813   -0.78336288153541
H          -7.37431837422371   18.52781070088955   -2.46869933282003
H          -6.72774286234393   22.76018525968545    0.60347173871617
H          -1.60877797116164   21.92822143180802    2.59563587741751
H          -5.89576520058792   24.39719054442382    2.29220903341438
H          -2.38505403957243   20.32764161147603    0.92302684336658
