86
 SCF done       -134.285066521652          0.000892527735
C          -4.68768837932155   -0.82121069867089    3.82032086147907
N          -4.17961921701183    0.13631645263192    4.64141733539484
C          -3.70207810620785   -0.06832958517754    5.98485622664768
C          -2.32726771487493   -0.73245024076556    5.99720835875176
C          -4.10449497289552    1.38968876926700    3.99091397273785
O          -3.64694969912338    2.38691669721297    4.51725726274085
C          -4.64831539400852    1.13228864782758    2.68235622463370
C          -4.98557383647914   -0.25846282954160    2.61136561921024
C          -5.47116697680297   -0.53157795391099    1.27440936734431
O          -5.87058827616969   -1.54244816410004    0.73833924846845
N          -5.37581526419086    0.70966860832773    0.61623823742706
C          -5.83843091009787    0.87594003345727   -0.73853259492522
C          -7.19935861313795    1.56597568268024   -0.79662507787112
C          -4.90498109643449    1.70657728288519    1.44612907518776
C          -4.71337562067318    3.05025977649792    1.04062453443712
C          -4.49034220539636    4.04249520458877    1.94214610746403
C          -4.21125269799941    5.38433732218422    1.61273428123558
S          -3.72949722757438    5.84557572520082    0.00675704676229
C          -3.39032387098092    7.47272860435848    0.46676674332321
C          -3.70449356954850    7.68374100818528    1.81367143089396
C          -4.17542146082411    6.49675404610949    2.46311192115168
C          -4.59133444344998    6.57623104977922    3.81893778725829
C          -5.20771631049130    5.50353108732251    4.50283557343643
N          -5.78444135194158    4.71658191802853    5.10630398319397
C          -4.49131941908577    7.77913307523813    4.48791145609719
C          -4.03536870281365    8.93515656522382    3.83801688666900
C          -3.66902607247774    8.90407234953732    2.52131102232855
C          -2.81716140027752    8.38118566593200   -0.49461501481313
C          -3.15735103783728    8.28746526409910   -1.84981449326859
C          -2.60242382168385    9.12949372427175   -2.78363751285013
C          -1.66679596177380   10.10366310333847   -2.41314842848746
C          -1.31828491619239   10.18204842963046   -1.05864859436294
C          -1.87099208935876    9.34235764478667   -0.12003481332005
C          -1.03207717888050   11.00552377142894   -3.34663681607979
C          -1.15723071226692   10.99131047320004   -4.68499798205138
C          -0.48867433682554   11.87374298988789   -5.61426775446974
C           0.28287506102019   12.97333080501881   -5.22122362526157
C           0.91377509057192   13.76334871642577   -6.15318739569727
C           0.81843770439554   13.50041038194815   -7.52590889360779
C           0.03203627627161   12.41185629851296   -7.91977399642951
C          -0.60471989174390   11.62562918585739   -6.98814066365003
C           1.52837922113406   14.35592725712242   -8.45051682807551
C           1.64968954505268   14.17163940396327   -9.77564830048512
C           2.37755091501140   15.01639167372959  -10.69774844474084
C           2.99302063007481   16.21801489665379  -10.32898645335476
C           3.68332834926803   16.97707758601642  -11.24637516388264
C           3.79554033759932   16.57643109942122  -12.58052079460412
C           3.17103092890196   15.38348545177021  -12.95385782803693
C           2.48101867145409   14.62306381484237  -12.03688656796694
C           4.52348334282023   17.33859876608400  -13.58372000436801
C           5.26880098881050   18.41838721544547  -13.37524189675419
H          -4.80460871202001   -1.83435775781888    4.15828283816818
H          -4.42494353681238   -0.67815885674367    6.53495851423607
H          -3.64237052079963    0.92188672479068    6.44458987271827
H          -2.36730268360883   -1.70836012458339    5.51792004715570
H          -1.98605663162596   -0.85923697986282    7.02086415082057
H          -1.61037325575666   -0.11241953015247    5.46453712701625
H          -5.91889266878100   -0.13294236486789   -1.15333191202195
H          -5.09564459870004    1.43591315752369   -1.31522175556800
H          -7.93475318663017    0.98002711141317   -0.25104981315741
H          -7.52369280600315    1.65800764834394   -1.82958549029735
H          -7.15021864358555    2.55808802717057   -0.35302978360246
H          -4.75420706146330    3.28269482203932   -0.01532575468236
H          -4.50551399472717    3.80184487988848    2.99582214192443
H          -4.80727431319594    7.83551258881101    5.51908721158451
H          -4.00661590303922    9.86458027993547    4.38615500715503
H          -3.38397617032848    9.80923938400505    2.00927419400939
H          -3.88120599831600    7.54526297389285   -2.15589530289688
H          -2.90097064313979    9.03380157392926   -3.81585596418308
H          -0.58202940619745   10.90964808736889   -0.74711909100468
H          -1.53681657393701    9.39315292974343    0.90487206257887
H          -0.37971333819858   11.73528585277342   -2.88554260835458
H          -1.78816622823465   10.24581654740499   -5.15125188795433
H           0.38305638315910   13.21609391851255   -4.17447581612851
H           1.50439257083722   14.60616559885508   -5.82131571856560
H          -0.08443659180321   12.18211088489868   -8.96789589507022
H          -1.20396748718385   10.78899576231577   -7.32062473572512
H           2.01318606968787   15.20546050331445   -7.98759758465494
H           1.18670473596904   13.30757441711483  -10.23438105546575
H           2.92529662536540   16.56602121129275   -9.30961292230083
H           4.13953420570671   17.90087880218968  -10.92508644263369
H           3.23590707842627   15.05251159235626  -13.98125690252343
H           2.01150331353474   13.70187822551111  -12.35351284726937
H           4.43412485259379   16.95285652970679  -14.59233559691556
H           5.40846165044620   18.85178802371151  -12.39983577097289
H           5.77235916292795   18.91553350149754  -14.18646713988956
