128
 SCF done       -237.917486191893          0.000410584548
C          -2.40413056246017   -1.88715999840889    0.41657050025290
N          -2.67643403917211   -1.02020560496261   -0.59304130711619
C          -3.20631141746567   -1.37030677169440   -1.88723708119750
C          -4.69949939365276   -1.67892173492100   -1.81687737126425
C          -2.44312467005965    0.31713204405277   -0.20155151935150
O          -2.64453386678360    1.27170683091146   -0.92516393347032
C          -1.96522148192748    0.20337781810002    1.15735365256949
C          -1.96810860233424   -1.18552875055877    1.50581803972584
C          -1.51232820701257   -1.30136436939760    2.87719813653384
O          -1.35349328986113   -2.25063745936970    3.60962681414865
N          -1.26683466365177    0.03315724463342    3.26662936761885
C          -0.76400927610403    0.34668146098379    4.58148170988129
C           0.73949767011479    0.61300758205176    4.56577648062580
C          -1.52070046029825    0.92480361274625    2.25234616457715
C          -1.34673821230395    2.33663744563960    2.37794151104612
C          -1.48770672819102    3.16106027022051    1.32304467371054
C          -1.32927188247231    4.59550709291057    1.33947885427189
C          -0.63400673912446    5.21530417504613    0.29043710265951
C           0.08126925969692    4.58347967542831   -0.83991777066480
O           0.25452958358527    3.42594877648585   -1.09013710261180
N           0.60661808346211    5.65615296020926   -1.60213976287041
C           0.32079505832669    6.89691629878712   -1.02672583082622
O           0.65093692229406    7.97375897645338   -1.45003195671837
C          -0.46275442515047    6.59481525661300    0.19712569103591
C          -0.97750575592096    7.45883876079560    1.14643234911442
C          -1.67898159329676    6.86668533243561    2.18930144465143
C          -1.85969620892225    5.48462775367996    2.30133741906325
C          -2.71271854331218    5.09592845244577    3.44037674400263
O          -3.07922461364752    4.01012784493258    3.77730185895610
S          -3.20522487246966    6.57704300129085    4.34791937681123
C          -2.31551366446262    7.67401654103927    3.25095242234943
O          -2.27099771397859    8.85925622132974    3.38410955390695
C           1.32669020860909    5.41320900962601   -2.75726031962037
C           1.91628329410041    6.36688844250618   -3.50304848051765
C           2.65389681228380    6.05680660240279   -4.68150132944185
N           3.29822923700964    7.00893449666091   -5.43403289275855
C           3.29170507371756    8.43612742458238   -5.21959131099600
C           1.99933452615082    9.07695539953692   -5.71989599270689
C           3.97149002944061    6.44479734245936   -6.53340153064641
O           4.64091694984288    7.09555421469068   -7.31085514645714
C           3.68642677329181    5.02933207804134   -6.43917249824941
C           2.88766620538164    4.82544373078418   -5.28182881228679
C           2.61776463936863    3.41049790835540   -5.17064154177706
O           1.99771447790697    2.76116937665660   -4.35291245589743
N           3.27124862631110    2.84608655533351   -6.28013597606255
C           3.22532390407078    1.42665156452977   -6.53378061072844
C           2.17423811656808    1.07191557521523   -7.58314832169644
C           3.90129227150318    3.79674340800414   -7.04655767687478
C           4.62471905654832    3.49524013147512   -8.23488624937703
C           5.20137738633354    4.46549624936037   -8.97428702183815
C           5.95120557499369    4.29934821404867  -10.19143174902895
C           5.81915410764467    5.27649145744332  -11.19296586184286
C           4.89906696785857    6.43888762489954  -11.22505069377348
O           4.01457902594049    6.71860723047748  -10.46016150807340
N           5.21657098866966    7.14004647979468  -12.39798109326537
C           6.18414104348786    6.47060378389465  -13.16697433581207
O           6.61217985330060    6.84125272372256  -14.22188425330810
C           6.54275655405117    5.26182640329953  -12.38063672372133
C           7.44078550699013    4.25100110791884  -12.67276305390716
C           7.58773331097453    3.27153365193103  -11.69847994157497
C           6.88739398543516    3.27962934569568  -10.48826539806658
C           7.30499597200806    2.20476069027938   -9.56856062138148
O           6.94763994010306    1.97934484913846   -8.45075428728022
S           8.55189900433267    1.17707015345236  -10.37298909180831
C           8.54323467440056    2.15624149058609  -11.86889117313359
O           9.21645644681913    1.91903116323756  -12.82480983060486
C           4.67075695097453    8.34489434926470  -12.81212613594082
C           3.86704400952407    9.10592542134256  -12.04775472025167
C           3.33558641647122   10.34953816185583  -12.49711241721602
N           2.57399471108784   11.16708369087401  -11.69624152081958
C           2.22460363437374   10.94085013158748  -10.31451287046197
C           3.38881558106073   11.22415885888088   -9.36832891480245
C           2.16298628031929   12.33252037782776  -12.37146100129394
O           1.48140550326447   13.19587433526250  -11.85446874537892
C           2.71970150701352   12.19223212970124  -13.69715308601201
C           3.43840702949170   10.96207556522848  -13.73662124586989
C           3.97027358792282   10.80149853738408  -15.06653637357328
O           4.63530555875850    9.92447009414192  -15.58158472662936
N           3.53282536789838   11.95042238532328  -15.75532598983880
C           3.90119262963214   12.17110494423056  -17.13227213436727
C           5.06149571528655   13.15486913364271  -17.26335825182152
C           2.79405649520348   12.78315042826731  -14.94965324337693
C           2.22004664356821   14.01728817541420  -15.40517901490180
C           1.52109408673766   14.82896006952291  -14.60909448647216
H          -2.53251497252460   -2.94604334151110    0.28607326718433
H          -2.65639048330549   -2.23141494029195   -2.27781163280482
H          -3.03266104574024   -0.50836037355941   -2.53675305440996
H          -4.88801001991893   -2.51651213253623   -1.14880785132255
H          -5.07181263469411   -1.93061528268400   -2.80586684882356
H          -5.24330701770644   -0.81203407762223   -1.44978056918265
H          -0.97303766284811   -0.53017626022136    5.20085562750010
H          -1.31056122057758    1.20282580074225    4.98666374395490
H           1.26752166619026   -0.26636522071048    4.20525323651639
H           1.08464016693711    0.83713498527692    5.57131325768540
H           0.98192591814439    1.45130359563194    3.91589253609523
H          -1.07191352971213    2.72063739782337    3.34870305289449
H          -1.67095816338809    2.73581074806048    0.34270270291521
H          -0.85558096847913    8.52838110831560    1.08798232559413
H           1.37812836188692    4.35928782140161   -3.01160789109589
H           1.84570319726775    7.40295735291217   -3.21289667731487
H           4.14031749000797    8.82891106272350   -5.78704835555536
H           3.44620239055410    8.65103695539920   -4.15922045711872
H           1.86926915662265    8.87061178460831   -6.77970099320992
H           2.04240947335398   10.15283913166511   -5.57447058218246
H           1.13806546313212    8.68826530984511   -5.18186020473467
H           2.96155538302743    0.95795549775496   -5.58150253625720
H           4.21664705569804    1.07953909338126   -6.83692293481684
H           1.18950969493408    1.37911014826819   -7.23945420510214
H           2.16569956966815   -0.00205832247251   -7.74710421177721
H           2.38110204058898    1.56934378983805   -8.52836698395721
H           4.67426825600864    2.46112867151383   -8.53740897480775
H           5.04472694220154    5.49731481261829   -8.68190698286964
H           8.00564490370485    4.22006871941382  -13.59033107754409
H           4.97367597216226    8.63279864881671  -13.81264020042942
H           3.60211959690933    8.78241532861847  -11.05401692045188
H           1.86799942390480    9.91439435679436  -10.19010138828970
H           1.40231018556424   11.62973796666135  -10.09979398811403
H           4.22011399562524   10.54850239125473   -9.55427164681624
H           3.06221362411112   11.09587151278041   -8.34011610283864
H           3.73401007508646   12.24690883386622   -9.49921804073587
H           3.03010351923578   12.51802194749142  -17.69537369054442
H           4.20552852412923   11.19483209681041  -17.52080589610916
H           4.80284088400772   14.12347646318327  -16.84101760100555
H           5.31581258699152   13.28549034474390  -18.31161959818592
H           5.93306941464953   12.77052136067885  -16.73952477197632
H           2.37402561066905   14.27270508753179  -16.44450920965796
H           1.35334439368239   14.59399868165086  -13.57141200869586
H           1.09940483488833   15.74656173382062  -14.98146922924267
