105
 SCF done       -195.973623710242          0.000881405570
C           2.49988804268357    0.57955761610400    2.89159206440067
N           2.48365508095445    1.83169973667980    3.42458543688171
C           3.25577041578935    2.27659483181849    4.55681092068111
C           4.72611435150178    2.47091726020403    4.19581653730950
C           1.64178057392138    2.69403395634464    2.68948314968436
O           1.47166342812787    3.86608694666129    2.97815298531756
C           1.11631052041993    1.85991268773888    1.64106413741256
C           1.67765001305888    0.55092404070778    1.80173922411871
C           1.13923936760859   -0.29640418611204    0.75760752924110
O           1.30902584664545   -1.46338693964403    0.48155291697672
N           0.27730596174029    0.55482215036571    0.03883117290666
C          -0.42653564585284    0.08694864563113   -1.12934602153157
C           0.23891455704110    0.55298679011041   -2.42237166821775
C           0.25651710254834    1.83503839228854    0.55151756831826
C          -0.55008287491591    2.87176350747524    0.01576867579149
C          -0.53057353101185    4.13236817929057    0.51936986173988
C          -1.31726905967922    5.21608279771096    0.05644772642523
S          -1.11737424073588    6.77164033822803    0.80911160167582
C          -2.32740202555420    7.48668595355139   -0.19136515937096
C          -2.85191034599062    6.56344861552860   -1.09742560232401
C          -2.28670778714251    5.26873177165579   -0.94756221046278
O          -2.58008315365228    4.14932609073958   -1.63677039758577
C          -3.63817842999027    4.15483223096267   -2.57188741163102
C          -3.73103104932751    6.95963357411299   -2.12034430495122
N          -4.39749975990072    7.29787187922212   -2.99200986699272
C          -2.66856174584200    8.86319425002425   -0.04238333157471
S          -1.47488962307926   10.01662827238596    0.46909882389883
C          -2.60399259391991   11.31771755340115    0.35624684673295
C          -3.87304307210048   10.85913167954509    0.00870942008247
C          -3.91007605916447    9.45900705148225   -0.23404718996546
O          -4.97448434176218    8.70924838077444   -0.54157112729359
C          -6.11392591998459    9.34129607820848   -1.09925058736498
C          -4.98148719702504   11.71752731265742    0.05412672563742
N          -5.84353543874484   12.47073819919022    0.14590080210813
C          -2.18793560663923   12.66530745117551    0.59306819990760
S          -1.02853837523300   12.98877551518786    1.84056918164101
C          -1.02460551463883   14.68807532923440    1.47367352816974
C          -1.89331267040726   14.96473986367889    0.42382795678100
C          -2.53708482690879   13.82266650782140   -0.08545334001594
C          -3.36410878191675   13.88996024516308   -1.33338254558891
N          -3.11151851910958   12.70183333107973   -2.18784338516782
O          -4.07002237305131   12.15321850565842   -2.67186029146470
O          -1.96121906094286   12.38206865903667   -2.36147775228915
C          -2.95681107514331   15.12326229017536   -2.14618709603046
C          -3.12411648024549   16.36126583907150   -1.27742687158840
C          -2.15091294877114   16.34873993502704   -0.09829325222528
N          -2.75811634839041   17.13369750171810    1.03211983940472
O          -3.89634229988371   16.88266410928123    1.32646315624805
O          -2.04746348694705   17.94001220102569    1.57497646711345
C          -0.18224021423915   15.58941261864619    2.17390419856844
C           0.61324030862787   15.23340757089324    3.21516483771366
C           1.45059597600154   16.17526371693805    3.85742043205907
C           2.25766488049256   15.90100053069961    4.92257177168327
C           3.13521184451688   16.83318560595235    5.60808195911382
C           3.48606960227983   18.08924805138945    5.18639967840165
C           4.35712740052992   18.94518331107115    5.89308979873114
N           5.04781061242645   19.69306235334900    6.42370623869413
C           3.07582388634466   18.69045921950109    3.97774552648947
N           2.81131974505912   19.23562495307568    3.00222777376769
C           3.63917756742083   16.16959103494844    6.80478183126817
C           3.16249806056764   14.82730976345525    6.81671893967077
C           2.31441159774894   14.59523731255083    5.63541321562216
O           1.77195582088954   13.55587432288855    5.32436873394658
C           3.48591338541192   13.95565090874549    7.81642307252715
C           4.31235381623272   14.39591951725255    8.87415753658297
C           4.78710842074457   15.73944662152393    8.87394862094484
C           4.43823564492644   16.61833900477329    7.82319478926536
C           5.60781685977250   16.16980182503195    9.93638498631458
C           5.94509845220723   15.31554420771557   10.95066423575721
C           5.47743248916777   13.99280393472540   10.94965181101185
C           4.67879829969621   13.54271749893205    9.93351711780836
H           3.08877657705062   -0.20231390071494    3.33410601545395
H           3.15593443279080    1.54928860076704    5.36845840472061
H           2.81971847834041    3.22860512559323    4.87167183419523
H           5.16520132784934    1.53560715878241    3.85555083280116
H           5.27703539619532    2.81972493671371    5.06480159956669
H           4.82124586926054    3.20868645421842    3.40291862181038
H          -1.46851208579481    0.41784686419982   -1.08788625867412
H          -0.40080155196029   -1.00538853126660   -1.07683792827198
H           0.25593220454360    1.63894335851024   -2.48238861063635
H          -0.30455086615337    0.16244751907365   -3.27852108586909
H           1.26203080259406    0.18758576783295   -2.46418338663285
H          -1.19726359632984    2.63559809209987   -0.81258835000436
H           0.13053712593825    4.35726136926572    1.34692247481566
H          -3.75465479550898    3.11721853680013   -2.88220111157934
H          -3.40010486241904    4.76984605315348   -3.44265292467541
H          -4.56958038128659    4.50779173926257   -2.12254837525302
H          -6.69477079956256    8.54016963207044   -1.55188654136271
H          -5.82894840838521   10.06184320016322   -1.86907338678581
H          -6.70492355873183    9.83726700225987   -0.32538305779555
H          -4.43920569237302   13.91163533539737   -1.12004020424522
H          -3.58823733974543   15.20514429894616   -3.03178270707203
H          -1.91665241562555   15.01730264910397   -2.46441327668008
H          -4.14451170059816   16.38064845603395   -0.88521356289492
H          -2.96596769194900   17.25992200443826   -1.87431572376561
H          -1.20705784478905   16.84782381621983   -0.34039284303430
H          -0.17978266700760   16.62242427809219    1.85044417830604
H           0.62057200632407   14.21303994827455    3.57257474309037
H           1.42110290177766   17.18500979931029    3.46741092326402
H           3.11365723685382   12.94202088457468    7.80033565428605
H           4.81058956083189   17.62989957348683    7.85465398931611
H           5.96597536023721   17.18881469556491    9.93219169224815
H           6.57431217628856   15.65457376204285   11.75988267523781
H           5.75323680538162   13.33243460500428   11.75816864453238
H           4.31579053825860   12.52536010386210    9.92729689909147
