110
 SCF done       -191.932329670472          0.000341761219
C           0.60564383049995   -0.43756234251725   -8.33386317064711
N           0.84768839548937    0.69866194400224   -9.03449970163009
C           1.43471050596934    0.77324544364923  -10.34900751338606
C           2.93473468668407    0.49406467736773  -10.31139783673140
C           0.50629294668715    1.84870362217239   -8.28410415161738
O           0.63774859209764    2.98146476896368   -8.70763497648706
C           0.01406117115858    1.31868805214411   -7.03636254763045
C           0.09388462869589   -0.10464655951751   -7.10793527128074
C          -0.41143373438846   -0.64635901321695   -5.85992004189002
O          -0.54453909502758   -1.77958774314383   -5.45899903587209
N          -0.77123616899098    0.49377779688468   -5.11611388666175
C          -1.28606116017054    0.37347824434188   -3.77275375204635
C          -0.21701049293123    0.66618468835482   -2.72308427305496
C          -0.52439512213734    1.66517193244812   -5.79728167380501
C          -0.81498994838048    2.94550565427197   -5.27608215578496
C          -0.57036902725141    4.09960380341097   -5.96158384548888
C          -0.86817230686301    5.38877041588393   -5.46484070431730
C          -1.43679935787812    5.74788545787656   -4.25449240754755
C          -1.58767056903888    7.15491346635300   -4.20749026982615
C          -1.03523993078286    7.67455104502400   -5.47356631591890
C          -0.60897110971320    6.61541306076834   -6.20850156061656
C          -0.87081247710634    9.02031875429019   -5.82549035064661
N          -0.67132146726307   10.10851625537011   -6.13319449933093
C          -2.16164218329531    7.89983182653717   -3.19398886079033
C          -2.48561588024188    9.27736381741789   -3.20583873036151
C          -3.02719743744441    9.63291588199943   -1.97899922946743
C          -3.05395616772535    8.44050087899752   -1.14958511475742
C          -2.56470090945014    7.39558365256011   -1.87220432957179
C          -2.45354961243520    6.08515476202945   -1.39902490766144
N          -2.37839007447198    5.01684397128754   -0.98070069101475
C          -3.49122746066296   10.93910443976013   -1.68061129498732
N          -3.70670362717058   11.48861546704812   -0.43788799952510
C          -3.48580496719324   10.89142962888806    0.85768893146127
C          -4.75898130084833   10.24722617320617    1.40258346696378
C          -4.15817836736733   12.81624468298732   -0.52076123107938
O          -4.39339294772426   13.50506681090161    0.45471860221944
C          -4.23669177077149   13.08448478463495   -1.93702820981577
C          -3.80946686452223   11.92504491309105   -2.62127503117430
C          -3.93789954284926   12.17381004543661   -4.04430364897665
O          -3.73200480657549   11.48586685102387   -5.01839058251546
N          -4.40848491710374   13.50313842772063   -4.11946092464801
C          -4.69449039191839   14.12030190512074   -5.39352557665771
C          -6.18938598123273   14.13092796869233   -5.70387453074389
C          -4.59967336584381   14.05151845769916   -2.87999057527718
C          -5.08844272768854   15.36507028865754   -2.67306708523468
C          -5.30768073618819   15.86494890969988   -1.42939318524799
C          -5.84249727614067   17.14238968395331   -1.11953998472316
S          -5.84152402972989   17.65669494501777    0.55504423285267
C          -6.59478265991598   19.17803594878224    0.18427144680976
C          -6.83995935004780   19.26085098692034   -1.19593930115869
C          -6.41299535041852   18.11831654765875   -1.90895034911830
N          -6.56868425109950   17.97200265366823   -3.34961790032121
O          -7.50411682097733   17.31119906531875   -3.72486346748719
O          -5.69679746694202   18.44331089051061   -4.03556854208969
N          -7.48556602690088   20.32682935689548   -1.86053957332141
O          -7.77332298319391   21.33250167532593   -1.23529570018712
O          -7.72564935815933   20.16329066515281   -3.04396148202829
C          -6.90003761064147   20.13209815206482    1.17308025271198
C          -6.63549199561491   19.96070824534460    2.49923925260005
C          -6.93187365750227   20.89383069644380    3.51218290723267
N          -7.53811250738796   22.10740002035006    3.27359487770093
C          -7.69430994187978   22.77566965740724    4.42616900121574
C          -7.18618015229622   22.00728423411701    5.47164774190189
C          -6.70113207879312   20.81255137189684    4.89291749145751
C          -6.06661320579416   19.68806691229097    5.62962688701107
C          -7.15083583497618   22.33937078102070    6.87208983008676
C          -7.63313064721094   23.46650312465944    7.41907289264252
C          -7.57393442092065   23.74723435756247    8.82897346404496
C          -8.05339224854779   24.85938462967837    9.38202839614199
H           0.80514873585443   -1.40480932898251   -8.75664985263727
H           1.25222928154749    1.78832399986605  -10.71171880780146
H           0.93068414178972    0.05999837671918  -11.00799083313981
H           3.43528597700426    1.22130040922986   -9.67685585849095
H           3.34776300325057    0.56365068645125  -11.31366846948949
H           3.13087368182084   -0.50219819291411   -9.92105830224885
H          -1.62398486978773   -0.66188085556435   -3.67299955787614
H          -2.14586099014504    1.03744855890624   -3.64768367922327
H           0.60801887222906   -0.03427800983052   -2.82760528904700
H          -0.64140222649097    0.55917226915054   -1.72892821920353
H           0.17039468183231    1.67699322066729   -2.82900600873789
H          -1.25788431425672    2.99762104687854   -4.29253397240257
H          -0.12739967078331    4.04410905403506   -6.94736935184638
H          -1.75336173460033    5.08236213081315   -3.47648406916138
H          -0.14595667731684    6.64777443668480   -7.17728965106240
H          -2.34823867334910    9.93267573674945   -4.04282298502436
H          -3.44009882938997    8.36440374481958   -0.15192600354779
H          -3.18679584588386   11.70442962399603    1.52672146478882
H          -2.66509676827084   10.17514494499502    0.78793176098790
H          -5.51362956321498   11.01285962471150    1.56408793973473
H          -4.55121854114089    9.75756757425871    2.35018549682773
H          -5.16057614362363    9.51425997122216    0.70592854467030
H          -4.16903745972022   13.51848512599386   -6.14027045450886
H          -4.28706837146471   15.13485164164893   -5.40945974328030
H          -6.57746718123735   13.11519573494299   -5.69919388879840
H          -6.35137823034061   14.55994096495387   -6.68845966329001
H          -6.74512467930244   14.71899247176635   -4.97683049993026
H          -5.27123928173181   15.95081780590284   -3.55853787442276
H          -5.06246427702322   15.25076563646932   -0.57158040313664
H          -7.36780919445126   21.03570090544292    0.81328358365666
H          -6.16035918113037   19.04124589512433    2.81443079969781
H          -7.81763711052541   22.43623793398395    2.36378970843567
H          -8.14800658441564   23.74651638773471    4.45295303516891
H          -5.17542001176520   20.03461292814083    6.15248006300493
H          -5.78107394922716   18.88499854075816    4.95712834177284
H          -6.75484516586444   19.28798944514608    6.37387103840996
H          -6.69371185953425   21.59972694593928    7.51577309419630
H          -8.09707666734232   24.22085372752022    6.79888194293692
H          -7.10764359269988   22.99203217493019    9.44903248907610
H          -8.52212098734693   25.62708466649298    8.78838382539182
H          -7.99462061322277   25.04162946887967   10.44081861758841
