127
 SCF done       -239.301343617341          0.000873552355
C          -2.14049187643171   -0.68951883543566    4.93098598152000
N          -2.37568177518843    0.42858044355138    4.20266727680898
C          -1.52332967110295    0.96132937713969    3.16840279157104
C          -1.64861281603769    0.16144721902474    1.87470637969176
C          -3.62422242240430    1.00430455956829    4.53398561987114
O          -4.04652994401287    2.02237513349954    4.01660775514464
C          -4.15533854333541    0.13003499472679    5.55260045689664
C          -3.20245970014090   -0.90585684044708    5.77177779778933
C          -3.72770796123383   -1.79108120243706    6.79827279665537
O          -3.28738605664171   -2.79441162667230    7.30636627496986
N          -4.97769027948614   -1.22709797930029    7.12491617714177
C          -5.81048109065405   -1.80659037234021    8.15428550618377
C          -5.75932063553733   -1.00940074545738    9.45437307267866
C          -5.24495376537639   -0.09177820951969    6.40185100867418
C          -6.44198016624330    0.64847035050306    6.53463529007775
C          -6.66755901296274    1.77538318036224    5.79798370137635
C          -7.78946557938106    2.63335470491385    5.82538106516982
C          -8.76166830490171    2.92878774430492    6.78226488088315
N          -9.02843062863854    2.35485801107150    8.03798753699227
O          -8.53369568022907    1.27479866732512    8.32715246871261
O          -9.76434807325606    2.97290043805280    8.78509913575383
C          -9.50053723728565    4.08983515774240    6.36225094423414
C          -8.99720717303092    4.54104557720745    5.18574510218641
C          -7.95219412431346    3.65392916653034    4.76714645289940
C          -7.34491854757586    3.64338634278008    3.52796048255806
C          -6.93186352308127    2.48691944071426    2.78991593783894
C          -6.73380786952501    2.84467533841004    1.49253157111611
C          -6.92604895281224    4.26146335987729    1.36389325782928
N          -6.72736457176037    4.95354205164203    0.15919515152322
O          -6.90496603927798    6.16307843677939    0.14129201335313
O          -6.39418631026850    4.30066566044603   -0.81500465906093
C          -7.26122822321257    4.79097864352646    2.60534750942551
C          -7.32221282507263    6.15401608119491    2.97069408823982
C          -7.05420715122340    6.60945816889214    4.22617669859711
C          -7.14090289079326    7.96785415601423    4.61224156074360
S          -7.59813895347992    9.20833586918727    3.48855455392336
C          -7.44783657563992   10.44671821601173    4.70748062110238
C          -7.12075556147520    9.90103391438596    5.93611868896643
C          -6.91821228701848    8.50939522992923    5.87582140553064
C          -6.43254536712000    7.67993717581111    7.02952949974907
N          -7.42517328161441    6.60381984109001    7.31621447459239
O          -8.57296066674724    6.94072392594669    7.45164882788955
O          -7.00650016474981    5.47489309815044    7.40098969957473
C          -6.23803787761728    8.46766114225025    8.33669789599239
C          -5.91206816221597    9.93106019072030    8.07609766650148
C          -7.06929928827751   10.54019396094481    7.29462757886956
N          -7.03003393461404   12.02346830674869    7.30877753235023
O          -7.84639238945296   12.58549218754785    6.61245124742025
O          -6.27340690835130   12.56704301579380    8.06779702929294
C          -7.55869583133834   11.80089302538136    4.23987620317806
C          -6.57629883353281   12.77459972748761    4.24488481387273
N          -5.31328353971419   12.68169307574989    4.83956323867486
O          -5.11800856311715   11.74619981382572    5.61110131505528
O          -4.47580377983433   13.51157762061904    4.54779455776964
C          -7.00379821093084   13.88878334822428    3.43691563921153
C          -8.21349358558890   13.59656521640975    2.90170809681636
C          -8.63023683997288   12.30129441939488    3.36474603367548
C          -9.83963804345716   11.65334212111456    3.20050203907427
C         -10.36966581793137   10.69752851173959    4.12201030820168
C         -11.62303372372627   10.34828214736330    3.72844133517978
C         -11.92492371635783   11.00123497212152    2.49047505116143
N         -13.20771271815323   10.86554559260688    1.93172816805692
O         -13.92225750513228    9.99128445103987    2.39247845512679
O         -13.56850407629248   11.62926334149332    1.04689719620460
C         -10.83876450956562   11.80718785124627    2.11683699818689
C         -10.56781304196439   12.48924458725442    0.91626560556992
C         -11.22166041662679   12.30056626330432   -0.27425555897051
C         -10.99165803392839   13.08068400635507   -1.42081578333553
N         -11.62168243808915   12.85503665569580   -2.62064234096017
C         -12.60389918713145   11.83144277619467   -2.90002607014379
C         -13.97742520169706   12.18357685993787   -2.33461039346899
C         -11.26130177023653   13.79372121646750   -3.59813231805492
O         -11.69192779284361   13.79067565972645   -4.73128636604259
C         -10.31747049902849   14.66757841532054   -2.92357771328960
C         -10.17057161239901   14.20685304700527   -1.59782300898457
C          -9.24799856311441   15.09236702998326   -0.92460432660156
O          -8.81452882429223   15.11369943753587    0.20954667296250
N          -8.88350166742080   16.03469209187281   -1.90795173575543
C          -7.99897077584826   17.13063795313036   -1.59006601628243
C          -8.77102691718446   18.41965183811987   -1.32002785337158
C          -9.51621420637526   15.79889799723726   -3.09702606120734
C          -9.32878676971109   16.59973059049303   -4.26892959389544
C          -9.96974673377614   16.36418363226640   -5.41832165481804
H          -1.23363518772411   -1.25267299212453    4.81035150667676
H          -0.48825153470268    0.95745324076945    3.52129040858302
H          -1.84341092809268    1.99311360407328    3.00154379383928
H          -1.36198307000358   -0.87569499293778    2.03409352161883
H          -1.00236827055236    0.58928904464924    1.11387728084421
H          -2.67419026992806    0.18899969417524    1.51497249791677
H          -5.41625752736323   -2.81293176321618    8.32154385592474
H          -6.83931919956609   -1.88346879191678    7.79330836166988
H          -4.73013018099482   -0.90483297142668    9.78971545030437
H          -6.32262827458568   -1.53378523253827   10.22067843155948
H          -6.19311406080778   -0.02122678761824    9.32655866142945
H          -7.18413619282337    0.29331010884106    7.23045453433621
H          -5.90205841798133    2.06979981390520    5.09144286787764
H         -10.30952261684797    4.50943013567848    6.92977959716886
H          -9.37854374680955    5.35611076693549    4.60215709386922
H          -6.92424066343503    1.48675578175492    3.17553414234538
H          -6.47717472239669    2.20597241860723    0.66874326124932
H          -7.51383494616110    6.86419438800052    2.17577719786662
H          -6.72922147947072    5.89966681734199    4.97345055242232
H          -5.50303069268915    7.17335557988144    6.74684134938490
H          -5.44542472822927    8.00226667675801    8.92229411227120
H          -7.16250914420809    8.41750343052035    8.91933308426650
H          -4.99581786158323   10.04514486000181    7.49609805728167
H          -5.78480841757426   10.45527654018135    9.02300961410521
H          -8.01956175742610   10.30022463177720    7.79969266147558
H          -6.42776820884197   14.78560741596871    3.31617192286422
H          -8.79634013540962   14.26874839075725    2.30654209740620
H          -9.89874289394522   10.41302494756455    5.04174437820448
H         -12.31511846009645    9.70723103030809    4.24126087124056
H          -9.74671139244717   13.18912003326068    0.92927475683562
H         -11.96634970869036   11.52756726580019   -0.36154149841123
H         -12.25291548887070   10.87356166381830   -2.50764152279577
H         -12.66087331561531   11.76447089110824   -3.99023896980231
H         -13.96094309396918   12.24282642511506   -1.24903723501640
H         -14.69347104252398   11.42121395579173   -2.62810749905175
H         -14.30862306770205   13.13980958717163   -2.73227439920901
H          -7.27966518880866   17.26782019596182   -2.40144749361262
H          -7.45848671974943   16.83152714519468   -0.68775319370428
H          -9.35124854744142   18.71831916462280   -2.19027661077626
H          -8.07678592442646   19.21716288584525   -1.07115930210474
H          -9.45051790258259   18.27790201682995   -0.48324065311325
H          -8.63041047684777   17.42150783117949   -4.19233568553566
H         -10.67156440466943   15.55266399890635   -5.51984569869611
H          -9.80298552175139   16.98285316998417   -6.28307693280312
