81
 SCF done       -144.170113658277          0.000321398848
C           1.72006744891194   -0.02732785664416    1.75152396740765
N           2.01616876953637    0.50987724812807    0.53834367322345
C           3.05742387366452    0.06297256306436   -0.35225590467171
C           2.66956362982476   -1.22789126328543   -1.06840679222487
C           1.12652921097583    1.55706890122140    0.20609690603281
O           1.20361160847032    2.19593254970361   -0.82553855336591
C           0.23630019646790    1.62907040305857    1.33804105037719
C           0.64363893939899    0.62840423938380    2.27913595331738
C          -0.22798893304682    0.71995912529867    3.43247899688992
O          -0.28739942236526    0.09218049063825    4.46625324473429
N          -1.10257195254262    1.77806686922433    3.11468385830655
C          -2.12025674271724    2.20470393685547    4.04286836874789
C          -1.68952814336952    3.43782900009334    4.83437711509134
C          -0.83511744995094    2.32463825580867    1.87683940593547
C          -1.56845695688002    3.40747700419918    1.32431774914224
C          -1.37681905299647    3.85408184316094    0.05672616200909
C          -2.08232682251107    4.97477656668285   -0.45985029468426
O          -2.79648829701649    5.74427562081629    0.38325037479030
C          -3.32218480440586    6.78312628950945   -0.30090325434872
C          -2.95105463170701    6.68737226524529   -1.64647444058660
C          -2.16315808266712    5.51261806567400   -1.74854193104232
C          -1.60744907358886    4.88664823994596   -2.97917282222658
F          -1.23705190977351    3.61709482420540   -2.80740525837422
F          -2.50678934399664    4.86196479343639   -3.98727292035581
F          -0.52958516665383    5.53467805146089   -3.47025946291259
O          -3.33402076458923    7.61282960927731   -2.54491200345917
C          -2.58122380337915    7.80736659106398   -3.73120899871205
C          -4.08372867633304    7.75403928395745    0.40928820359822
C          -4.73985833554302    8.77596866060296   -0.17600009561458
C          -5.46832398393684    9.80146349616265    0.51971908447516
C          -6.16851340643957   10.79957626809141   -0.13813821304245
C          -6.28986463983497   11.03176704247707   -1.60487028680474
C          -5.06277354864584   11.77076617169533   -2.14888169345418
S          -6.90496071569907   11.89418280681114    0.96459335925384
C          -6.28085501803501   11.02083610583638    2.34277630721735
C          -5.54968467492423    9.94049864913234    1.92856697977216
C          -6.56464383008468   11.50230396514859    3.65768830116436
C          -6.10984858642386   10.94375928719679    4.79524411047596
C          -6.36431259523911   11.42720448893136    6.12689656275839
C          -7.16887171082634   12.52960756928068    6.45479751381048
N          -7.34975972141834   12.93840895031088    7.69022074718978
C          -6.73871555228504   12.26479717493945    8.66470399239437
N          -5.96500560015420   11.19610676639179    8.47438398536280
C          -5.78617028779278   10.79203760896351    7.23778591074034
C          -6.92906158887766   12.72876967046051   10.03404712579905
C          -7.72287395902335   13.83706043937266   10.34133955107952
N          -7.88924196683058   14.25727258904333   11.58194002964377
C          -7.26728393816965   13.57810591432633   12.53053327049913
N          -6.49415317736542   12.51883463092526   12.36252434962631
C          -6.32465389001671   12.09552673496299   11.12345670752246
H           2.30442528496206   -0.83237805944359    2.15743418442129
H           3.98066642782356   -0.07928410189465    0.21766725792998
H           3.20441246354484    0.86403831450416   -1.08173889603434
H           2.48737783944106   -2.02554496827859   -0.35135823646013
H           3.46962957873418   -1.53432877796170   -1.73640980114075
H           1.76661229605331   -1.07254184002961   -1.65364319947614
H          -2.27236108482853    1.36703419889674    4.72970493606218
H          -3.05288886446006    2.39259959142635    3.50335629414432
H          -0.79139593694309    3.21449487745155    5.40475717363317
H          -2.47731212438173    3.72605306997751    5.52515977238360
H          -1.47875906092773    4.27423880166342    4.17150517507203
H          -2.31335561958700    3.88677188926178    1.94253285228314
H          -0.65917733068165    3.36784865200173   -0.58631737113399
H          -2.85275593973297    8.80216646820728   -4.08255644422117
H          -2.84323046962576    7.07654232961680   -4.49791892568439
H          -1.50808902238053    7.77422114172619   -3.53529265431119
H          -4.09622879174327    7.61302014316088    1.48012794893781
H          -4.71741700189336    8.84543524928524   -1.25146701286761
H          -7.18288853389896   11.62802950228326   -1.80163796102264
H          -6.39845123778789   10.07571593826652   -2.12153609195319
H          -4.95750030705105   12.73686636722195   -1.66062168998369
H          -5.16870272544009   11.93262213544989   -3.21852267113988
H          -4.15918912083796   11.19333128925390   -1.96896358458168
H          -5.07307769650794    9.26480388010689    2.61350224851352
H          -7.18327847344304   12.38801037732683    3.69824359081336
H          -5.48554206763664   10.06167876108854    4.74156942831285
H          -7.68794510278674   13.10360478197559    5.69818790855934
H          -5.15118400800646    9.92239402837423    7.11234143014319
H          -8.22982537061630   14.38890568253333    9.56150776124888
H          -7.40440575585718   13.92433209634654   13.54697457082675
H          -5.69220516264485   11.23002967762193   10.97995201458231
