118
 SCF done       -231.871858065675          0.000271819869
C           3.45111905233041    6.46176367467196    6.31690769818986
N           2.57034960987042    7.23350097129896    5.63607783605682
C           2.82473065410665    8.55431383887560    5.11564674244524
C           2.78716557237484    9.60698305158313    6.22003678911292
C           1.30233359751748    6.61281401546370    5.55137437887443
O           0.34819908913802    7.12132507317490    4.99176497409058
C           1.48015482791805    5.35424073621042    6.23604797694692
C           2.82597377210512    5.30143662283461    6.69845127060020
C           3.01634745960256    4.03542509481910    7.38771310683515
O           3.97193697393069    3.55101263597366    7.94497718533858
N           1.75913581640674    3.40572176947703    7.29193578682777
C           1.54492681795709    2.08096981404682    7.82773563493253
C           1.64071674334105    1.01023664916135    6.74446828111076
C           0.84295217648769    4.16446148909147    6.60779511574462
C          -0.48123278568940    3.74123065223212    6.35510208758775
C          -1.34841331913633    4.51631310992532    5.63857722012391
C          -2.69126947148167    4.25047302459407    5.29300001550123
C          -3.67968808445330    3.40907559625066    5.81776363082663
N          -3.60904283666473    2.36824513289873    6.75919349995687
O          -4.66181458006756    1.98020094301493    7.23469692482519
O          -2.52345965387064    1.88381971130236    7.04585832580192
C          -4.94986475209591    3.77595380592579    5.26058719906566
C          -4.78495386480882    4.82594779951936    4.41233653425770
C          -3.39166590189259    5.14368472440735    4.34895465270750
C          -2.77856798039067    5.98156375426313    3.43349248273378
C          -1.49303784622067    5.77802752410859    2.84822698388589
C          -1.35157270489898    6.61754747359153    1.78207685543984
C          -2.51265200933184    7.44263616015627    1.68299701249617
N          -2.63664650040217    8.45828034073607    0.72362278313142
O          -3.65066033729766    9.14263354405711    0.71145217339300
O          -1.71536979084495    8.59994135540216   -0.06315427298095
C          -3.40712586320838    7.10236437651788    2.70424298541302
C          -4.57699552585620    7.79730932884328    3.04257165460522
C          -5.19891788340204    7.78764373153188    4.26446484444441
C          -6.39485799934970    8.46976955690354    4.52465829341608
S          -7.24201577658217    9.33966998628371    3.29162780009634
C          -8.48416562726465    9.83908892657635    4.36913617995036
C          -8.27943260688754    9.33169273692274    5.66080764749210
C          -7.09484676622821    8.54417123790242    5.75111097819891
C          -6.74875749981678    7.94254794385976    6.96857915036873
C          -7.57259220503727    8.12325739799875    8.05158756417733
C          -7.24160936843963    7.50391327633721    9.38061873836464
F          -6.08849050980853    6.82276204376655    9.37314431552539
F          -7.13640172529421    8.42375528605382   10.35506507719274
F          -8.19293252916522    6.64257226925838    9.78461591707590
C          -8.76266447383025    8.87368915386927    7.96136173972800
C          -9.11974827322514    9.46494771536618    6.78293050300273
C          -9.52954948680706   10.73222351742545    3.94237333671070
C         -10.30969634015544   10.54933302598302    2.78244634435596
C         -10.22859921716646    9.34175347161563    1.93504116399879
O          -9.56469370556519    8.36239461996017    2.11154139516413
S         -11.36393665606984    9.50307310531391    0.56360081714620
C         -11.99512317137477   11.07608734547249    1.14806122071283
O         -12.85643440346201   11.67212266556393    0.56988819876292
C         -11.29427375281407   11.45475908447890    2.39081570324748
C         -11.62181957595849   12.61072045673287    3.13829359557344
C         -10.80204176514005   12.81273463361352    4.26695980015485
C          -9.81067867833270   11.91656948439164    4.64414278592293
C          -9.04862769357966   12.53517654753243    5.75839734793376
O          -8.09764212224865   12.13381252699811    6.35393985019028
O          -9.61097716919331   13.76104338212149    5.99525839287116
C         -10.64645065992734   14.01644566928981    5.12493679678811
O         -11.20675966852381   15.06630699406889    5.10043567534015
C         -12.68053134436074   13.49373069490164    2.74712577416325
C         -13.48159398626300   14.13329599885010    3.63081973998227
C         -14.57627755902160   15.00094925651252    3.37100605055287
N         -15.00551978020367   15.57002448641648    2.19433723909313
C         -14.39155038723936   15.51863096534572    0.88795407591920
C         -13.07889890466530   16.29612340399057    0.84451794808807
C         -16.14071598366814   16.38417811120454    2.39456191182356
O         -16.68623287736553   16.99701802738343    1.50000293752769
C         -16.42548549342068   16.27584600450172    3.80820921360493
C         -15.44560771500897   15.42354501337622    4.37125904943103
C         -15.72250022654772   15.28536650161730    5.78436422056949
O         -15.18825767493587   14.64747400664629    6.66392940163565
N         -16.86830517977794   16.09045000117679    5.98462955332982
C         -17.42366906333931   16.27325193587073    7.30396071191317
C         -16.99582804066822   17.60405575329447    7.91791356528054
C         -17.28980548583832   16.67994784348114    4.82171672406437
C         -18.44070979267618   17.53130543579798    4.73513428456612
C         -18.82616788725737   18.10811942494121    3.59387133296341
H           4.46396621387565    6.78145795238086    6.47819906517488
H           2.04112818034685    8.75648184089259    4.38070691962815
H           3.79747173681522    8.55889457137195    4.61624398024971
H           1.81064259426707    9.61369885253104    6.69788412694025
H           2.97421455393220   10.58986408424482    5.79751084647678
H           3.54343834220393    9.40064598031451    6.97417548544679
H           0.57263027469761    2.03967934680500    8.32396406425076
H           2.33242962591139    1.92438428620866    8.56988043141508
H           0.86752456622541    1.14703092270648    5.99237916628550
H           1.51746155284862    0.02865206845734    7.19228201435274
H           2.61379625880988    1.05307967897623    6.26074335694950
H          -0.78863945374388    2.77610861058755    6.72439943692279
H          -0.97803478728089    5.46586971802959    5.27452072410020
H          -5.86325068602850    3.26247755514813    5.49462720899985
H          -5.54258585819060    5.26643874540513    3.79418410468329
H          -0.81172919217442    4.99688029821693    3.12190559254881
H          -0.52138296322512    6.67561027240792    1.10382740806907
H          -4.96898803096358    8.45602741523090    2.27573625768234
H          -4.74789853345068    7.25830264808724    5.09169600703400
H          -5.85467276981711    7.34553799945554    7.05330553706320
H          -9.38620980662140    8.96913973598239    8.83658877318995
H         -10.03924841508526   10.02328272671754    6.70613397765567
H         -12.86921251780107   13.54849594359521    1.68815858466111
H         -13.35255066459878   13.95150299568723    4.68964738285062
H         -15.11353232658222   15.98404545071343    0.20970181362251
H         -14.25525599280977   14.47964211869315    0.57810667729142
H         -13.26460644095716   17.34735547128910    1.05088458183436
H         -12.63523777963779   16.20988451261088   -0.14336668154529
H         -12.37278419576547   15.92164785018873    1.58193217218844
H         -17.03705011799384   15.44898194353574    7.90990477969639
H         -18.51345014023025   16.19543880073031    7.25920775722677
H         -15.91219837108896   17.64538146511527    7.99483329928535
H         -17.41870819732348   17.70238895759365    8.91377020503593
H         -17.33144068780627   18.44118724215247    7.30972148841421
H         -19.00215243168025   17.69083114374641    5.64514424476133
H         -18.28156662771057   17.96332583769488    2.67539443556516
H         -19.69755056169752   18.73881050011749    3.55621833756629
