122
 SCF done       -226.488882530522          0.000981379000
C           3.00528031310681    5.02674255691863   -0.00936450765731
N           1.71866209659553    5.39229137046431   -0.21937049605457
C           1.15124444578739    5.82094163226814   -1.47394768895362
C           1.56901278943028    7.24776603877204   -1.81899950374132
C           0.97713441922054    5.37821260838630    0.98674653618074
O          -0.20094662494082    5.67813092055657    1.04526805206808
C           1.93039366256387    4.94600393822803    1.98014338796912
C           3.17565993628489    4.74135467907773    1.32265844055453
C           4.14087819029142    4.29345612837684    2.31368085086718
O           5.30871073914972    3.99608486803415    2.22994622094609
N           3.40101202424235    4.24834931597875    3.51110171542884
C           4.02627444740492    3.87627112270210    4.75989635734460
C           4.31309335233907    5.08729344522026    5.64252927581726
C           2.09359322454629    4.63069318315269    3.33619055181519
C           1.14656176119082    4.64506435204981    4.38058037267858
C          -0.15230299054909    5.02237817434755    4.16859395403096
C          -1.20542943573574    5.09621266175840    5.10119057834633
C          -1.25597560288564    5.22244365412579    6.49975916896623
N          -0.25122735290590    5.16081231015789    7.47653462409908
O          -0.53269839521242    5.57534659940775    8.58914519865302
O           0.84438152446901    4.69087444022059    7.19894415641383
C          -2.59643476272992    5.53374173559685    6.88783670274594
C          -3.38314998110359    5.61450550661806    5.77612090564424
C          -2.58718189277672    5.32301464806064    4.63507932035252
C          -3.04687837595255    5.13763539810552    3.33564877014478
C          -2.53533005821245    4.22412573420981    2.37792617958670
C          -3.38660155596960    4.19162131350351    1.30729886759315
C          -4.45453250907501    5.10890383312460    1.51926848222381
N          -5.42818051311160    5.28548447544888    0.52640873556300
O          -6.45247624006803    5.90767125372920    0.77862559293449
O          -5.20997411818485    4.78154839907897   -0.56347301358678
C          -4.26752110145041    5.74318741596851    2.76720906651954
C          -4.83459687389995    6.86769523344939    3.37781344817904
C          -6.03125032019674    7.49123204898019    3.09682453321061
C          -6.45347793145283    8.61519030772125    3.81153072517547
N          -7.66035618959576    9.24141578180160    3.61286743947894
C          -8.64484820106536    8.90232946889783    2.61022278976194
C          -8.23476954172369    9.38215288401495    1.22113691892413
C          -7.85254608618633   10.32209335677683    4.48832407619998
O          -8.84255843359561   11.01889782150775    4.51064757525858
C          -6.64046352358184   10.34259484112167    5.29015396933602
C          -5.80620748892558    9.30902884504122    4.86391238406333
C          -4.60888021855489    9.35270404273870    5.68248738033275
O          -3.60919122635333    8.66293987188359    5.69329173361473
N          -4.81433410470243   10.42859814203872    6.56520400932584
C          -3.78818256268590   10.75816358003529    7.52717172021436
C          -2.89454350439391   11.89580724173050    7.03915534425619
C          -6.02433609007834   11.04575477507054    6.34675095058170
C          -6.64207147640673   12.12737750634424    6.98930824512584
C          -6.16097434835736   12.95594503455800    7.97137845749256
C          -6.90428071137132   13.98916417817466    8.56537205804059
C          -6.41514990037259   14.86412169397251    9.53392462587757
C          -7.43615446368404   15.75197223503583    9.92400201817289
C          -8.62403743022258   15.38242405124076    9.13126492790843
C          -8.29490790229893   14.33823299851897    8.32501317139067
C          -9.88443242348734   15.98782499757567    9.18771964166493
N         -10.92839810397846   16.46619721695242    9.22129868601181
C          -7.36150955862050   16.77238029788447   10.86244334130775
C          -8.38037369007172   17.65610265082696   11.26329589413517
C          -7.88172320939720   18.54596925334210   12.20922760578913
C          -6.48766663082633   18.20147992576613   12.43836727901345
C          -6.16851337827823   17.14303413219662   11.64694723261182
C          -4.91588312341010   16.52129305890021   11.61356693375521
N          -3.88056478298091   16.02323256845643   11.60915808270173
C          -8.63906927552147   19.54852048241514   12.84821141779701
S         -10.36774541491470   19.47773198889174   12.74824731260197
C         -10.59423342378354   20.88346292026168   13.72595763062399
C          -9.36438730470150   21.39616913992631   14.14898871204703
C          -8.24657647443548   20.66125546222611   13.62739252405374
C          -6.95591414228908   21.12425319534324   13.87979034634394
C          -6.74873842422988   22.22596255947277   14.69772467394144
C          -5.36155472976585   22.63632150539221   14.88759272379366
O          -4.39980624167802   22.07456601454605   14.42157667842754
C          -5.12110667276405   23.90498587121565   15.75729326323684
F          -5.76584643083169   24.98154279307680   15.27220987687435
F          -5.54521156458733   23.73931628663569   17.02321368245631
F          -3.83004187161051   24.21635496432184   15.81518841897759
C          -7.85376344779306   22.87540422932120   15.30451024381426
C          -9.12731964151152   22.47396813215638   15.03024669871835
C         -11.93842982410464   21.33398411027875   13.95689616763230
C         -12.32096758652426   22.58343982435260   14.22145202218987
H           3.71265994355003    4.98404684022742   -0.81673659936221
H           0.06541152413980    5.76743977457133   -1.35842600030593
H           1.46453254577948    5.13029939289952   -2.26199834853202
H           1.23954681521051    7.93292778551387   -1.04157676385304
H           1.11587729962523    7.54578209836667   -2.76016501020248
H           2.65034436839993    7.32043705824355   -1.91297300583719
H           4.96528227787450    3.38646191065427    4.48719238735636
H           3.39158746622502    3.16064421386908    5.28861877713008
H           4.92109090225156    5.80970206619747    5.10270778780524
H           4.85554369148330    4.76805544396908    6.52759745136625
H           3.39089694127304    5.56666722637096    5.96025809973613
H           1.46690494220746    4.33193670755765    5.36098467133476
H          -0.42887978918455    5.30234352970792    3.16032432900289
H          -2.89739336042417    5.66559741211032    7.91000498396177
H          -4.44616649604405    5.75544495368490    5.76915485907750
H          -1.68927352231409    3.58173086654716    2.52361684186065
H          -3.30223711954101    3.57711247140651    0.43084195767317
H          -4.23965020129988    7.28874949592305    4.17790220422563
H          -6.67692283020108    7.09570280639970    2.32919596192483
H          -9.56844827959724    9.40075047924515    2.91751008927468
H          -8.80577696605048    7.82140013279666    2.60843112197424
H          -8.05872674623942   10.45522103336917    1.23052527035110
H          -9.03111695880011    9.16655501016907    0.51533574677611
H          -7.33259204396901    8.87843955882925    0.88449008909591
H          -3.18378676534277    9.85340736299099    7.64361740939550
H          -4.25283706098754   10.99089504582027    8.48772025902891
H          -2.36422015627165   11.58699879093330    6.14175395726037
H          -2.16465373971809   12.14318818538052    7.80474681068820
H          -3.47534840390303   12.78558038769534    6.80563515551440
H          -7.64162729655134   12.30952143441224    6.61563091570847
H          -5.15043059634957   12.85431177800908    8.33654756774154
H          -5.41593508306004   14.86043250622682    9.92325835138686
H          -8.95206364338710   13.84864173365234    7.63132568926455
H          -9.38197756449229   17.65985817578780   10.87938228929784
H          -5.83165639102889   18.65900088315748   13.15285178834102
H          -6.09298378354851   20.65935508238949   13.43256460813650
H          -7.70068402119673   23.69408670774781   15.98716399261119
H          -9.96107436633989   22.96390031949776   15.50456731044770
H         -12.69223170786552   20.56452499260532   13.84344639709277
H         -11.63120313538860   23.40745469085636   14.26252613637965
H         -13.36023621399315   22.81998042051369   14.36759201612784
