82
 SCF done       -140.849968303181          0.000927112507
C          -3.39158108402105   -1.58987419112872   -1.72533200747138
N          -3.55352820736086   -0.65454666702597   -2.69919209973860
C          -3.71623258604022   -0.91831864855813   -4.10679666505086
C          -2.38975234910240   -1.27995112045102   -4.76989568176345
C          -3.49403834258090    0.65363729640868   -2.17229234522001
O          -3.62227658478661    1.65281058830635   -2.85671347539212
C          -3.28454842804148    0.45472117186523   -0.75984060997040
C          -3.22958183993494   -0.95897482808677   -0.52522787837522
C          -3.03180138509636   -1.16743091009158    0.89366233007415
O          -2.92140724788151   -2.16692022016778    1.56841162939613
N          -2.97480212135499    0.13764209207632    1.42410418795935
C          -2.89068947522412    0.35316403542828    2.84697919296592
C          -4.26629985608044    0.63504997361546    3.44835063312291
C          -3.12404438399878    1.10413466079775    0.45533424570102
C          -3.07348105207511    2.50321996116695    0.72750559853437
C          -3.24697733202108    3.41718484053209   -0.25179914416642
C          -3.18958576620920    4.84272442275339   -0.08525124855866
C          -2.78754681194976    5.51295262314146    1.08179731185860
N          -2.75323549161573    6.82414836442448    1.14879725602405
C          -3.13534723444363    7.53135562078333    0.08402221341758
N          -3.52304743673210    6.99645437842259   -1.07614659612851
C          -3.53856521876497    5.68709498432442   -1.15597182476396
C          -3.10814218624374    8.97050588424386    0.17373701979465
C          -2.69109251510836    9.78950236342294    1.37967032219547
N          -2.63971607042324   11.07265276479399    1.15498827230313
C          -3.03343097023661   11.21172578531029   -0.15116027858155
C          -3.23183033134115   11.99996878666751   -1.23713744241523
S          -3.69894189184897   10.67476702955021   -2.34847078204977
C          -3.33098464156744    9.92084723502467   -0.75009344038924
C          -2.33604381900224    9.18201486511685    2.63241113128510
C          -1.20473236687255    9.57181339207346    3.35213254135837
N          -0.78787085270269    8.92652673793443    4.42139142113629
C          -1.46901834583607    7.83932494695902    4.78255226027011
N          -2.62184549889080    7.45382940637012    4.23876537804294
C          -3.06667047322201    8.12028516530370    3.20120971518526
C          -0.96212871294625    7.01050054757221    5.86051756312085
N          -0.25339566764239    7.48285983619380    6.93047948114806
C           0.06358158246334    8.86108436811733    7.22010989039817
C          -1.15654431263953    9.61842739057495    7.73584310906913
C           0.04847591244127    6.45694734221173    7.84660337873506
O           0.65736674716905    6.64390984909751    8.88160012625162
C          -0.50167925422807    5.26712639579156    7.24220613760180
C          -1.11358104992011    5.64484807119846    6.00633093761153
C          -1.60254634512933    4.44104705990081    5.37018275742933
O          -2.11993469778988    4.21223514668722    4.29517410413674
N          -1.31322647328280    3.42265865431941    6.30477189064010
C          -1.64339751374115    2.04611641552770    6.03412414666921
C          -0.43068085587077    1.24614807337917    5.56361022475285
C          -0.65328850219686    3.90308772486633    7.41111164029674
C          -0.25442015064414    3.07414689675475    8.51400508366228
C           0.41222298477102    3.54483616446060    9.56959185065117
H          -3.41039029061592   -2.63877007111545   -1.95704923553293
H          -4.11552988846170   -0.00160129592022   -4.54918303723822
H          -4.44159283395683   -1.72672207358009   -4.23819987276235
H          -1.67945049367014   -0.46535542701589   -4.65203677573759
H          -2.54353588010274   -1.45734286245017   -5.83061972575966
H          -1.96791791201126   -2.17732262574153   -4.32246592149240
H          -2.19730376871704    1.17156523055620    3.05363238406940
H          -2.48783548973875   -0.57296034843931    3.26721586738318
H          -4.67297797802640    1.56810226540924    3.06445841672197
H          -4.19671930951652    0.70272106752998    4.53065742839411
H          -4.94992498456191   -0.17291805180100    3.19802332128205
H          -2.88681161335853    2.81568074732101    1.74475625214293
H          -3.45536749792086    3.07783124961976   -1.25846529094146
H          -2.48667764643190    5.00062396601772    1.98683929924858
H          -3.84705054363855    5.27050809274617   -2.10713959242816
H          -3.14178861696849   13.04510301642748   -1.45943265738406
H          -0.61515753883246   10.42151498279250    3.03512439015523
H          -4.06540231400513    7.87627449757436    2.86945440464184
H           0.44972942805647    9.33321926284034    6.31573348456142
H           0.83874302543332    8.83520654591017    7.99090146563954
H          -1.94052692340555    9.63558112933580    6.98203247668925
H          -0.88013611614092   10.64167536336807    7.97330832693792
H          -1.54385323462873    9.14328450558964    8.63436805763811
H          -2.39943263074698    2.07214980923586    5.24554181014088
H          -2.08497089622206    1.59128833530878    6.92547519342635
H          -0.02522279451082    1.68351847724260    4.65413207095304
H          -0.72098240825539    0.21918796587636    5.35948000146567
H           0.35073252586173    1.24575144838955    6.32010498027375
H          -0.52641154905199    2.02888796959466    8.46380485298077
H           0.69361955308755    4.58211963860127    9.64252403822192
H           0.69199312958091    2.89860446217643   10.38390012379935
