128
 SCF done       -218.619792692302          0.000633995437
C           0.55639570519452   -1.19981901802616    3.22275943946938
N           1.41882484556465   -0.32241476759340    2.64099579664189
C           2.76659914165250   -0.61640197287467    2.22339595499195
C           2.79006338803314   -1.45453997971274    0.94788515536277
C           0.80771561467186    0.92978319883905    2.42183775410506
O           1.38542217024390    1.87558044827059    1.91259086979229
C          -0.52928428363906    0.76189682680401    2.93104110547181
C          -0.64399057760166   -0.57800158069887    3.42063963436981
C          -1.98713522092320   -0.74824261776210    3.94314106844506
O          -2.54680934992480   -1.68962823515457    4.45800579734580
N          -2.59406543204209    0.50618941960471    3.73907327156936
C          -3.97623108827846    0.73554765325087    4.08726654770105
C          -4.89018214493825    0.65608026833905    2.86758686653152
C          -1.74397274019825    1.40612661961351    3.13869384254640
C          -2.10674870443660    2.74377042412323    2.83859676762252
C          -1.24284709345798    3.60742073169600    2.24214873711781
C          -1.58901476461185    4.95008046224748    1.95509111479581
N          -0.71259528534325    5.84009043958125    1.37770335664471
C           0.64568468444691    5.55584412492693    1.00016514707215
C          -1.28396467111416    7.10795616438045    1.19731581935736
O          -0.68241953266125    8.06014316957263    0.73811570783448
C          -2.63185804130392    6.96620743806760    1.70117451286444
C          -2.78461745933672    5.62810602546351    2.16915462717877
C          -4.12742212897989    5.48479009905834    2.66675253098679
O          -4.71490735774150    4.56259146966872    3.20305653243206
N          -4.72115746711469    6.74181574035658    2.43285153791067
C          -6.04053422246316    7.03744578982391    2.92262570381006
C          -3.83904793192596    7.62464860380227    1.86083820616784
C          -4.18765957746085    8.96937104963867    1.48071383285839
N          -3.42028447349991   10.04630939550904    1.80537380555037
C          -2.25845244071759   10.10659820682493    2.65289921195808
C          -2.55835101265087    9.65311305477741    4.07793136904473
N          -3.90279914623230   11.15624112201166    1.28651929022874
C          -4.97397150682344   10.83142076653100    0.57554878879270
C          -5.21930306550098    9.44884794572326    0.66704538653632
C          -6.26946005809295    8.65323510892327   -0.03854512398538
C          -7.69171005992842    8.97378226595314    0.42714514417837
C          -5.67624202979112   11.87308933188308   -0.22351483475380
C          -5.15491654667623   11.87257621741874   -1.67613027893271
C          -5.77706941866331   12.99146258230190   -2.43063873939361
C          -6.71032809532296   12.82045483723086   -3.37008401872055
C          -7.39327684935108   13.84486923432083   -4.11620763280477
S          -8.00496461935849   13.43232267846529   -5.67830696949917
C          -8.64963421830241   15.02526012917751   -5.93097053577694
C          -8.37792959568088   15.83623232500921   -4.83718463753713
C          -7.68187764965503   15.16427997863127   -3.81176158235890
C          -7.38301390523371   15.81424755080023   -2.49520544938949
N          -7.80381019627995   14.93761483843002   -1.36480730461603
O          -7.12297636999383   14.97418828734036   -0.37056646707797
O          -8.81711211838602   14.30169767444106   -1.50028536650090
C          -8.16585458648173   17.12322238822360   -2.34159841443324
C          -7.95902827991210   17.96937301770861   -3.58963852306273
C          -8.66759118725352   17.30434324303896   -4.77673150004776
N          -8.14194503047733   17.99221601574708   -5.99739727217506
O          -7.18363036266204   17.50355630484329   -6.54083436942216
O          -8.67778412721183   19.02336477342302   -6.31024889969828
C          -9.32653079757664   15.28701437729249   -7.15418529345813
C         -10.19527286674554   16.30313397718669   -7.38210338074408
C         -10.78182240153497   16.54095918906130   -8.64679688706829
C         -11.65212344602536   17.56508654890443   -8.88553678334274
C         -12.22898617167354   17.93931185109214  -10.16391947503098
C         -12.21345259851541   17.20102404506395  -11.31850970829802
C         -12.80900453516140   17.61452051880462  -12.52851008414861
N         -13.27464275762260   17.89060575968832  -13.54096686924274
C         -11.63931035266448   15.92026886578943  -11.45835543328447
N         -11.21200185711041   14.87027457228078  -11.64250634734746
C         -12.87719727581814   19.23470972462346   -9.99404538946743
C         -12.79807464615997   19.60727524135158   -8.62158994795713
C         -12.08670648788940   18.56168120306472   -7.86935865289667
O         -11.91293944681884   18.52497495880862   -6.66794241171200
C         -13.32135146435110   20.78068525140206   -8.16073557479966
C         -13.95358136726406   21.65722139378040   -9.07042573717954
C         -14.03271993626198   21.29475105682847  -10.44607962619804
C         -13.48645083374219   20.06976744652589  -10.89298052166419
C         -14.66113540402105   22.17952086706280  -11.34597286734584
C         -15.18584831400552   23.36565665300093  -10.91025270739193
C         -15.10707494884383   23.72164167044446   -9.55557701871450
C         -14.50485460301426   22.88524936876755   -8.65527252966609
H           0.86379212123525   -2.20099615220734    3.46157718840682
H           3.28759964602053   -1.13825111041008    3.03173682123068
H           3.25248755405199    0.34691351519814    2.04622523020580
H           2.28809034600745   -2.40676908544945    1.10460043616896
H           3.81712035336313   -1.64596237239069    0.65016305227667
H           2.28653993425063   -0.92445472037569    0.14314114465939
H          -4.07731696721617    1.70841570946158    4.57446825244022
H          -4.24133066424448   -0.05132672487093    4.79899092374839
H          -4.64557030784616    1.43534945535105    2.15005153781514
H          -5.92282814750935    0.78524703339977    3.17822516676736
H          -4.78767978748740   -0.31319383687970    2.38515328873816
H          -3.09937109928054    3.07897048215045    3.10297670760139
H          -0.24914051225758    3.27547470528013    1.97696860697013
H           0.68483462338749    4.77852052605702    0.23541955618714
H           1.23243913817340    5.23350158015274    1.86158355143982
H           1.06364493005045    6.47946632591925    0.59986407360490
H          -6.80525381338742    6.74383508603364    2.20126184178760
H          -6.12507761629078    8.10190202849467    3.13452208634631
H          -6.19677222133052    6.46027084504319    3.83524574298945
H          -1.95228665084583   11.15455424597244    2.64844848120991
H          -1.45964817183109    9.50658467403271    2.20897373826956
H          -3.36141241009452   10.25061413205624    4.50449395725953
H          -1.67094470770043    9.77622140941235    4.69210932373144
H          -2.84897421913405    8.60550608750248    4.10325669804368
H          -6.06420711816434    7.59057640107467    0.10359557387244
H          -6.20233978140947    8.85469368889639   -1.11129988671499
H          -7.78847140472065    8.86260168837373    1.50390289890831
H          -8.39893985203758    8.30265156987661   -0.05511742291053
H          -7.96421306421866    9.99313904781800    0.16963325868662
H          -5.48101812296034   12.84592453452687    0.22938607775142
H          -6.75275464762008   11.70404980234157   -0.22988122982144
H          -5.38440745100662   10.91624936362542   -2.14801521672382
H          -4.07089236171469   11.99973401584481   -1.64855202120794
H          -5.43420857231235   13.97457974922531   -2.14491045270465
H          -6.97339120064062   11.81149796272063   -3.66233929226047
H          -6.31324154625583   16.01003044109375   -2.36491140278998
H          -7.81744784855414   17.65714617550795   -1.45653565500650
H          -9.22865165763260   16.90009728712085   -2.22043140477110
H          -6.88901817726979   18.05126329605393   -3.79881497266232
H          -8.36066733192781   18.97263292311778   -3.44475318521750
H          -9.74010401391851   17.51799309514961   -4.72399369968520
H          -9.14057588954391   14.57433043688963   -7.94861162007098
H         -10.49352320241101   16.97205170249820   -6.59301077297657
H         -10.47266276414801   15.89994251054067   -9.46198575716311
H         -13.24714555900043   21.03989887811209   -7.11511963261690
H         -13.55810183010599   19.82700516013982  -11.94128411867450
H         -14.71926992658697   21.90104981182314  -12.38800659813226
H         -15.66383822120518   24.03724263314022  -11.60761858705567
H         -15.52603488836085   24.66178790442994   -9.22914883073485
H         -14.44135592921739   23.15374427028457   -7.61083252699031
