103
 SCF done       -178.607528659819          0.000882302299
C           2.30458550169099   -0.55472419226396   -1.52880351855622
N           1.81208468748360    0.19888169483012   -2.54204708130200
C           1.83886099255983   -0.14015944312023   -3.94341574764008
C           3.23966248077230    0.00709860049922   -4.53084371790115
C           1.30030638898765    1.43022707725690   -2.06661285018035
O           0.80858036158471    2.27065785683918   -2.79267115752440
C           1.51424374075003    1.37010632731218   -0.64007202765859
C           2.14120501828479    0.12117927106224   -0.34822265831168
C           2.34977851873369    0.04736901818693    1.08504958005827
O           2.83669720339278   -0.79984468710414    1.79718003980240
N           1.82156990952536    1.26243793761431    1.56721779481046
C           1.88912399681093    1.59339858622991    2.96998444188957
C           3.03054265900266    2.56127502348323    3.27312603649406
C           1.32577445575763    2.05674393129537    0.55715605580094
C           0.72712587698776    3.32045400059972    0.77705133156253
C           0.26819022238695    4.10529842788954   -0.23722540533379
C          -0.33512721248517    5.37320014213905   -0.06227205235170
C          -0.74915128825224    6.20995025535417   -1.07987836929501
C          -1.27666727732693    7.40744289161408   -0.52301437512437
C          -1.19109445004800    7.24542569007623    0.94282041221267
C          -0.62774797890764    6.03859090988303    1.20267776207654
C          -1.64587768027897    8.14171973488112    1.91686853714568
N          -2.01401015533759    8.84534758426305    2.74701267376881
C          -1.74308237226335    8.51763046469753   -1.18950811482281
C          -2.17586252891596    9.75298535358981   -0.62171903527342
C          -2.53461413020174   10.60996096876808   -1.63535955682667
C          -2.34908845506883    9.91790518726193   -2.89998906656828
C          -1.86999920397640    8.67122072969840   -2.64960331459701
C          -1.57404436846981    7.71831911699208   -3.63067273546165
N          -1.34310649139950    6.96828081258951   -4.46941923679463
C          -2.99194740161192   11.95268659635582   -1.52009937464902
S          -3.44611472176433   12.86204332019577   -2.92913683090453
C          -3.82194328848158   14.25394764148721   -1.97059558319852
C          -4.16065428466328   15.47889129813271   -2.65212520410373
O          -4.31145760767052   16.56220238902509   -2.13836429911884
C          -3.61078099056679   14.01090433179953   -0.61012584161275
C          -3.13093785716602   12.71041681612014   -0.37677654342640
C          -3.84064040787835   14.95681430080546    0.45260759885363
C          -3.10014580707762   15.06240614443159    1.59808049413081
C          -3.61439035528742   16.14528685557440    2.38487066094908
C          -4.78425384643966   16.65768553277088    1.65446977466742
C          -4.91245294165593   15.94046326024977    0.50678010420161
C          -5.69155410790239   17.62705308410883    2.09955066382954
N          -6.48293811082471   18.38081053751037    2.45254900925325
C          -3.11640961268349   16.62792606009024    3.56940461385532
C          -3.53872591097813   17.79364535581677    4.26969022915619
C          -2.82520344651868   17.90448151100417    5.44432123366150
C          -1.90048683971931   16.78188924903396    5.51006830136937
C          -2.04441802197601   16.03133035490903    4.38566837208933
C          -1.29947213627837   14.88569008746878    4.08752929678640
N          -0.66263612375164   13.95476800701740    3.86839494404659
C          -2.98886199587156   18.98704028929006    6.35383071764619
N          -2.69176576743067   19.00957361978955    7.69398305995042
C          -2.17632948293157   17.93610328495569    8.51000849881835
C          -0.66028292399174   18.02963486780520    8.66769320456239
C          -3.01702494625999   20.24697981764811    8.28514301801685
O          -2.86360694898835   20.47709417946940    9.46774334960614
C          -3.53339045737456   21.04227932691009    7.19487761446308
C          -3.51542271755700   20.23519637552021    6.02836668614095
C          -3.96976967613474   21.04376014229127    4.91837948649338
O          -4.08943063840194   20.82542210615707    3.73383619372389
N          -4.25866144095260   22.29852929621511    5.50646581904370
C          -4.81499854298710   23.36729013840699    4.71300554576889
C          -6.32985486010160   23.46208728033348    4.87640554823105
C          -4.00896702874164   22.30491485356838    6.85145157465173
C          -4.20908438935668   23.45172725373947    7.68956981826202
C          -3.98110653011333   23.43620811889053    9.00505218829909
H           2.72997162804742   -1.52416062047694   -1.71199365354060
H           1.15086100313229    0.54911328112312   -4.44030829839283
H           1.47701363212580   -1.16466071592954   -4.07147467793020
H           3.58665388350759    1.03146023381023   -4.41963405898487
H           3.22279227587315   -0.24109399152919   -5.58819454132024
H           3.94072112916202   -0.65540787461219   -4.02770921405613
H           2.06286947779619    0.64858724510852    3.49276592942723
H           0.92985146484622    2.00386652243482    3.29830331189448
H           3.97957205841440    2.11520381184841    2.98633345261409
H           3.05669513246122    2.77768469211334    4.33750939334789
H           2.90962393144202    3.49499901866319    2.72795989954180
H           0.64146880891579    3.65726209669858    1.79974746480790
H           0.36764545121368    3.76184702136126   -1.25859277081578
H          -0.66600206304999    6.00141081909516   -2.12852371433561
H          -0.44042414699327    5.63522330997886    2.18034712180030
H          -2.19769699689239    9.96590890524055    0.42804244092559
H          -2.55893166558745   10.34394016843270   -3.86395128780660
H          -4.25295755325683   15.34545216588370   -3.74826546068146
H          -2.91137608875930   12.33328410969832    0.60558675241931
H          -2.22774612379747   14.49074773486035    1.84786605072378
H          -5.68848227581483   16.04936725129168   -0.22540490511214
H          -4.28601875213042   18.47747023875958    3.92073424606662
H          -1.18203755857373   16.59751376036489    6.28564181962482
H          -2.47965957297066   16.98062011560429    8.07735124738148
H          -2.64088745001748   18.04091254612458    9.49547914964957
H          -0.16174745478531   18.03556842967017    7.70050234389806
H          -0.29536337032518   17.18672883825491    9.24832409514088
H          -0.40508065860427   18.94859686396462    9.18929196414633
H          -4.57539020679217   23.12506300758959    3.67364946845258
H          -4.33116415065266   24.31192517412497    4.97612048766707
H          -6.79351921945712   22.53027864025265    4.56250732583718
H          -6.71624663131708   24.26735195388214    4.25791692427906
H          -6.60001472646062   23.65359611407490    5.91280719124066
H          -4.55999530469096   24.35323674018556    7.20671085296505
H          -3.63389589271185   22.54896943651129    9.50794914179546
H          -4.13919826681572   24.31416999816840    9.60732591975096
