108
 SCF done       -185.299347860738          0.000430895349
C           4.33167668406598    0.38438009736737   -3.00196716631286
N           3.25805123849299    0.44359844293425   -3.83025489542732
C           2.87445618419174   -0.56016963100600   -4.79044816087200
C           2.25026812484393   -1.77683892309653   -4.11219499962706
C           2.49188583792128    1.61053457901305   -3.59781137319740
O           1.48183887627332    1.87598985572122   -4.22378225841219
C           3.19930984398198    2.28831150262414   -2.54176372618066
C           4.33490589884947    1.49420433930321   -2.19982288774403
C           5.05383708787010    2.17197036337825   -1.13666447915405
O           6.05749186538802    1.88718665334337   -0.52349015806167
N           4.29976839218935    3.33636588188436   -0.90504420273170
C           4.71399999657162    4.30911603415377    0.07797785213048
C           5.41092268067376    5.50822576598696   -0.55985858649628
C           3.20045670325174    3.42585640056521   -1.73197116388148
C           2.28987242844683    4.50119022093682   -1.69891897744197
C           1.19762594946457    4.57914294517652   -2.51697046164026
C           0.28603278691750    5.65484880732820   -2.50702481762190
C           0.32300317820447    6.82294241455883   -1.75024074009642
C          -0.79083197080593    7.62102658357394   -2.06747440586797
C          -1.55669108791154    6.87988335367759   -3.08458777084645
C          -0.89933336733239    5.71478949307716   -3.34044318296695
C          -2.74428319320945    7.28999915964845   -3.69444510367014
N          -3.72211376989976    7.61286409698277   -4.20704325163755
C          -1.11498650221714    8.86923767208160   -1.54024085462688
C          -2.24221869876752    9.65557382320070   -1.82731513086654
C          -2.18089787804563   10.83957182709088   -1.08929791453176
C          -0.96333693023453   10.80215869534217   -0.30616344145938
C          -0.32117576642462    9.62849640785132   -0.56136674266999
C           0.88985228802766    9.24056446999612    0.01999983438719
N           1.88493204990773    8.94700521922626    0.51536430006892
C          -3.12778978269602   11.87534734518778   -1.09026273991117
C          -3.05683767699048   13.05299460722835   -0.37641145818512
C          -4.13916013180057   13.91781339507146   -0.53126709704811
S          -5.34457632600145   13.27510941860086   -1.62104838316756
C          -4.37213113727544   11.76524978841020   -1.91527547619893
C          -4.31062265842121   15.16089839116774    0.08193570791305
C          -5.40898081927430   16.01918202680779   -0.02686359749919
C          -5.28237420960527   17.17333851217519    0.70807415867896
C          -4.07643542416668   17.26196174360319    1.41068528042430
S          -3.09525219833651   15.84382505093940    1.13392396735767
C          -3.64319775587293   18.30514938289996    2.22979159972155
S          -4.65610171856417   19.69834336914644    2.53198741125610
C          -3.39562800152700   20.46954249932710    3.59739048822732
C          -2.21879990059005   19.54391103165050    3.62570553549327
C          -2.41477712259292   18.40053595745377    2.88296266147495
C          -1.05299669102629   19.86840786747022    4.34305666258883
C           0.12321549556318   19.12441963490578    4.41686850189519
C           1.05996599105856   19.80963544154338    5.21521314197387
C           0.39551605535349   21.04390026254558    5.66094970338964
C          -0.85983908871397   21.06607041656700    5.13367096454575
C           0.92346258417837   22.03722393139175    6.49144079937564
N           1.31549894661277   22.87405803341874    7.17491253854661
C           2.35799359849929   19.42320630243820    5.51506670964177
C           3.32087883680864   20.13378332255300    6.27163905567099
C           4.50046752120538   19.41889494808884    6.30829789832143
C           4.29132498337349   18.19439114700224    5.55815840308507
C           3.01474311109181   18.18014063372536    5.08137723081781
C           2.45068409433734   17.15237610673437    4.32392049742926
N           2.01011738364734   16.29223147460327    3.69971053972477
C           5.72992032364247   19.79629252021255    6.95906326896602
C           5.74318274084315   20.84904776573510    7.89581315139091
C           6.90183295947294   21.23598434865115    8.52625960473003
C           8.08344462543282   20.57195044133226    8.22310623730181
C           8.10593378512853   19.51756844651183    7.29043086815547
C           6.92734460576285   19.13704035529295    6.66990303033453
C           9.43234306739697   18.97601312111907    7.12512570271034
C          10.37141709553511   19.63260454908926    7.93736511925357
S           9.65178853354378   20.90801314316469    8.90174585945838
C          11.70854459841414   19.27423008724103    7.93921134351488
C          12.11269467053027   18.24168345660740    7.11405390023091
C          11.19648323257729   17.58026625452188    6.30264383038562
C           9.86371145039040   17.93958054941332    6.30321799424293
H           5.02306146432827   -0.43662205597053   -3.04557570994232
H           3.75333592631059   -0.85650173302233   -5.37093202928515
H           2.14606629636352   -0.08905024644344   -5.45595769233854
H           2.95702723969494   -2.23968976708261   -3.42685518817641
H           1.95956135593737   -2.50825839301857   -4.86093679982295
H           1.36648223768270   -1.48019347179028   -3.55275244402170
H           5.41269920277438    3.78877532855291    0.73923527543987
H           3.84795538912820    4.62997570889619    0.66349733694068
H           6.29878339607818    5.18044019220483   -1.09508322917879
H           5.70831153133354    6.21182778807005    0.21248054225875
H           4.75259774930685    6.01814523134825   -1.25943733945270
H           2.47297252125665    5.29296070089928   -0.98804538145438
H           1.00791095125836    3.77843542900599   -3.21978916598619
H           1.07555746772892    7.09106211303886   -1.03633335967930
H          -1.19239804399327    4.95063271766959   -4.03631554169924
H          -3.02339489822027    9.38110040112273   -2.50771760527073
H          -0.62893972472560   11.57023725408892    0.36542825170381
H          -2.23490641251566   13.31368868421813    0.26800042130032
H          -4.15464933048445   11.69800454850606   -2.98253452040052
H          -4.97875095905107   10.90325926331180   -1.63354573676771
H          -6.26007438698176   15.76881701015383   -0.63512262389798
H          -6.01988758194295   17.95501158309409    0.75565105968149
H          -3.83088755850585   20.61573367624686    4.58763100302362
H          -3.14519010606339   21.44537027201004    3.17797452649847
H          -1.68000538562163   17.61919416133933    2.79149721722478
H           0.30303659778809   18.18443086739858    3.93571846370445
H          -1.59065295353588   21.84002994018089    5.28094153029064
H           3.14517301635759   21.09555251974934    6.70998139458785
H           5.01222558659977   17.41004798088459    5.42172840929136
H           4.82113041980953   21.35431498491216    8.13383968121141
H           6.90001645165266   22.04015240890802    9.24541798789343
H           6.95003332541710   18.33887469373592    5.94505699226388
H          12.41216800434579   19.79260254011072    8.57171713299972
H          13.15082758593053   17.94646960646075    7.10003697976359
H          11.53361324181185   16.77666602483915    5.66548652201815
H           9.15682180599426   17.42348840325547    5.67152789088724
