122
 SCF done       -224.516722547037          0.000289068897
C          -1.54675464264593   -2.91430754302426    3.01023459144527
N          -0.59719948749350   -2.33832383514109    3.78106045683651
C           0.66001824190161   -2.92815710338422    4.16989728865622
C           1.68902604742078   -2.83907782439549    3.04603263603724
C          -0.94392574464000   -1.00302480060994    4.11573288989392
O          -0.22774295188723   -0.27085089154346    4.76291970752195
C          -2.23846871143290   -0.81798127443926    3.49959981983708
C          -2.56985805253489   -2.01940639378144    2.81140870536267
C          -3.84959247303874   -1.82089581271415    2.15346351541310
O          -4.52908582762363   -2.53762052587945    1.45862797545906
N          -4.19841841518558   -0.49364479559533    2.48530285696476
C          -5.45475375361926    0.07544478016379    2.06063960103466
C          -6.48831634824600    0.07150233148940    3.18385881473509
C          -3.26512017987529    0.10373704754552    3.29753399247593
C          -3.36552506827483    1.42816017676989    3.78385449668936
C          -2.53617769890604    1.91214045400530    4.75148584547706
C          -2.55594657434317    3.23310185229552    5.25014784626095
C          -2.25501756113044    3.62571395642107    6.54833849019667
N          -1.85291783666946    2.80394315355944    7.61971700548251
O          -1.46102985727774    3.36174082357357    8.62904080317851
O          -1.92602512471562    1.59451312845789    7.48450085963072
C          -2.50118085243063    5.03077757369570    6.69445754631237
C          -2.98633456994697    5.51475222683428    5.51969700336928
C          -2.99315055673156    4.45925387754071    4.54763214796027
C          -3.17663699803188    4.60376296678394    3.19051384505885
C          -2.58713664598156    3.79742405096470    2.15435930564271
C          -2.82148495730327    4.39249092834740    0.96263408837045
C          -3.60834629256413    5.58658529345785    1.17316146087306
N          -4.07297534552417    6.31724416344910    0.06326006985275
O          -4.45958184263022    7.46448729182626    0.21325622726836
O          -4.05582909256422    5.74383639293273   -1.01245630167200
C          -3.85147614320280    5.74199674424593    2.52971454169536
C          -4.72282339797520    6.60251708594478    3.26110874793672
C          -5.07657595914320    7.87006007670220    2.95024301874816
C          -5.96210556497734    8.70134908737927    3.72770736831664
C          -6.64439759620719    8.25789475751237    4.85998316838905
C          -7.49564708646429    9.10140555855045    5.55568985362490
N          -8.19717832646725    8.53176275678913    6.67385687746803
O          -7.75082979694519    7.51378410045452    7.15799381445180
O          -9.20413003380577    9.08993802166302    7.06274558314563
C          -7.69875872180026   10.43622683827973    5.16389794717328
C          -6.99566375094527   10.87590913396746    4.03478488248285
C          -6.16306076971652   10.03559956871313    3.33326127077713
C          -8.52939168386894   11.37606081045300    5.89716430102273
C          -9.23946619230685   12.32985197455964    5.28632799064743
C          -9.94184104919898   13.40772769474253    5.96076473042962
C          -9.50550890009649   14.71091662208009    5.92585248440293
N          -8.32842397050756   15.15184865918239    5.30209452810312
O          -8.03171035110989   16.32741745165283    5.40560535454007
O          -7.66639757879904   14.32710452081689    4.68532855716433
C         -10.41725575677644   15.56237696148760    6.66322382414891
C         -11.45201064975316   14.80093302125573    7.07075171631461
C         -11.23852755832445   13.43157672195742    6.63943970188469
C         -12.11111084811601   12.37659277895531    6.76814751288769
C         -11.78576659235022   10.98301536155205    6.75169130145764
C         -12.86474694339133   10.28668250904455    7.19036186818736
C         -13.95895058389779   11.19000043451870    7.43223883979016
N         -15.20595920916003   10.67670698890820    7.82646278619960
O         -16.03971950711000   11.42420754175352    8.31981249272081
O         -15.38758852039832    9.48207357308430    7.66800513782017
C         -13.55345575463931   12.48933608188627    7.11787679535792
C         -14.26540100975151   13.67329838263859    6.84265252145205
C         -15.55071112030020   13.98486336947195    7.19845415437618
C         -16.16964781227940   15.18157137975734    6.78845690646146
N         -17.45687517340481   15.52062778552363    7.12864436805516
C         -18.39679289736780   14.69613517355936    7.85395086469380
C         -18.96431098864483   13.57888424498769    6.98343409815248
C         -17.82682550432536   16.77758326009373    6.62711920783921
O         -18.91705322349708   17.27971762379837    6.80032068257900
C         -16.64487255064585   17.24437898106182    5.92523994376399
C         -15.65318505768960   16.24283114775992    6.03015189804566
C         -14.47739260922071   16.71041760142379    5.33048966027747
O         -13.38837874483989   16.20821478125183    5.13265035254917
N         -14.83625864087361   17.99025289075551    4.86135106021041
C         -13.91946317096925   18.77077740579334    4.06474017551689
C         -14.24169494263735   18.67940243719972    2.57547737895484
C         -16.12224247603710   18.31554867075071    5.19985723982185
C         -16.74312103111357   19.55964051239356    4.85587677810359
C         -18.00898793207262   19.84962860692946    5.17183325009591
H          -1.44139988752166   -3.92347858791178    2.65616688861116
H           0.49131387774355   -3.97023187678784    4.45364393897721
H           1.01197280632447   -2.36885657829087    5.04062170182789
H           1.33955165681696   -3.36652757668519    2.16109631993522
H           2.62624682491670   -3.28212782788708    3.36980528882374
H           1.86819396649548   -1.79895816673293    2.78521664302625
H          -5.80538682306334   -0.55159243223576    1.23624390161789
H          -5.28869454734043    1.08945956865640    1.68494832502776
H          -6.67597491591957   -0.94798612171789    3.51128814800797
H          -7.42133176621237    0.49789935970355    2.82654798638234
H          -6.14154471652023    0.65031088082596    4.03725316962395
H          -4.15668876851826    2.05225497671735    3.39176399294676
H          -1.85454570868901    1.22937429915285    5.24744227514509
H          -2.32502561206816    5.57270839558314    7.60434903328921
H          -3.19795219995235    6.54401888705867    5.30531729597529
H          -1.96656983869110    2.94114178474669    2.32813796975496
H          -2.48756090648701    4.07733391506055   -0.00765458120781
H          -5.09578289561982    6.16246404492329    4.17685004983169
H          -4.66623601036323    8.33466161025152    2.06691712930687
H          -6.54650967121613    7.24418367662833    5.21727826208754
H          -7.08837815673746   11.91141656005523    3.74569277991439
H          -5.64269108552276   10.40416185076563    2.46211605611271
H          -8.53065623434393   11.30971153804382    6.97691431490985
H          -9.24268682838659   12.38580518528785    4.20364705495240
H         -10.24789737771820   16.60771643165682    6.83172335848596
H         -12.26970280504722   15.11803701155273    7.68637777177835
H         -10.82112132696335   10.56973051536965    6.54611184502668
H         -12.93121542979436    9.22739635573667    7.35216454433106
H         -13.72482487270197   14.39709305899906    6.24686460463474
H         -16.11574603444614   13.31340211823241    7.82587685190275
H         -19.20207792185303   15.36581478058358    8.16781348398736
H         -17.91225635376568   14.28080327471860    8.74090344243386
H         -19.43826309555226   13.99570570318105    6.09775572756273
H         -19.70722488795480   13.02269736911284    7.54725340642719
H         -18.18254829517498   12.89019533707201    6.67380535206323
H         -12.92630502675767   18.35242849940392    4.25065603905639
H         -13.93282886081236   19.80975321941330    4.40442071029153
H         -14.18002782560152   17.64559961212729    2.24466092478624
H         -13.52528165410169   19.26772266362108    2.00930443316630
H         -15.24290549190019   19.05036749202941    2.36763443097245
H         -16.13615741256292   20.27704361680763    4.32126549723289
H         -18.63453279258990   19.15149662319286    5.70344377807247
H         -18.44478223694994   20.79641958918369    4.90343872300832
