122
 SCF done       -197.204033148244          0.000486283232
C          -3.73289899490842   -1.52858590782000   -3.52837974616797
N          -4.70118349761878   -0.69054204473011   -3.99265925115661
C          -5.68033219970583   -1.01200715816992   -4.99973245153444
C          -5.06572426278585   -1.02811243771500   -6.39703455230273
C          -4.59336660341838    0.59014491660728   -3.41512681243198
O          -5.36184530890693    1.50321020829493   -3.67352466576145
C          -3.46206106546380    0.48653064088457   -2.53331138876818
C          -2.95825386890567   -0.85425686971040   -2.63088162767561
C          -1.83723451464840   -0.97631944208527   -1.72340726380400
O          -1.09728745459028   -1.89636083708231   -1.45442774349159
N          -1.74405525487699    0.29666281475257   -1.12453062787987
C          -0.68572317268627    0.60028366229639   -0.19319081310028
C           0.43686744747309    1.40172804485413   -0.84858433182337
C          -2.69477260036845    1.17164755677041   -1.60379013897394
C          -2.80964887043001    2.51554857780892   -1.14443616553229
C          -3.67049091970470    3.40112068588602   -1.68942085943617
C          -3.79846419893488    4.78502655719581   -1.28563142453051
C          -4.98873693496571    5.50079600786609   -1.53117614461961
O          -6.10804229413685    4.92355532275521   -2.05631658194592
C          -6.56938290723416    3.67333475224083   -1.56645552864496
C          -5.04340973449683    6.88174282992105   -1.26491067643070
O          -6.13659386945779    7.67577051165779   -1.43447088021869
C          -7.44627003274459    7.14815992906211   -1.38818626870637
C          -3.90049761529104    7.53989140056873   -0.77979950402314
C          -2.75662481100848    6.80458241747832   -0.47075370336146
C          -2.70873494050445    5.45673393242386   -0.71900371028813
C          -3.88207582879737    8.96732895836653   -0.50139574098601
N          -4.23409269594971    9.96019207106550   -1.37376447167912
C          -4.54689090733958    9.81867178880872   -2.77477122386163
C          -3.34680143568482    9.31741514222276   -3.57355595240154
C          -4.05401407172960   11.24429039136789   -0.80209496264300
O          -4.28508322308748   12.27702629983637   -1.39681128248291
C          -3.57360618277365   10.97226721156940    0.52901736569906
C          -3.46238003135626    9.55849575591478    0.67386021930832
C          -2.99267813635444    9.29210634354612    2.00912048834071
O          -2.74843363771628    8.26261581340546    2.60584776777569
N          -2.82223114076698   10.57459986114955    2.58552891620142
C          -2.46101719489708   10.67364514811358    3.97808824780628
C          -3.61865534421993   11.16856484748154    4.84101362295638
C          -3.16705214620092   11.58033972712026    1.70485028776786
C          -3.11119326267261   12.99848510621343    1.86429659740279
C          -2.50180055779422   13.72492630769842    2.82121575622796
C          -2.40583283076607   15.17420179192756    2.80471810270465
C          -3.41814244047925   16.01377898175769    2.30438038475642
O          -4.65339151589215   15.52813317548506    1.95349794507142
C          -5.35518117719654   14.75188639882513    2.90574770255706
C          -3.17278131489171   17.39126657348574    2.16165691206840
O          -3.98890599750621   18.29890634266983    1.58320080081922
C          -5.38664315308415   18.10247413645100    1.51323691156902
C          -1.93128539549818   17.91195244629608    2.57424014315898
C          -0.96577770733323   17.08125332607557    3.13083114339876
C          -1.20503237351611   15.73326593261769    3.25081476867543
C          -1.73868610700924   19.35546780069480    2.53005015927424
N          -0.66059263525183   19.97648054049195    1.95631681192704
C           0.31897037000822   19.36174229761015    1.09341894834027
C          -0.30485492495359   18.90153472638914   -0.22080970538938
C          -0.72550061578993   21.37908827666671    2.11191237663317
O           0.11778427862986   22.13400397120214    1.66657103319578
C          -1.93080422128334   21.59849117772061    2.87294626110972
C          -2.53254550395868   20.32012988750093    3.10292486663163
C          -3.73199527596363   20.51900080786126    3.87604267177779
O          -4.56770909252355   19.75572750334686    4.31649119895104
N          -3.79002477401222   21.91777963789538    4.05576726976660
C          -4.84202860124155   22.51965792539136    4.83579144095886
C          -4.38000242905577   22.85602275450978    6.25231936179061
C          -2.72268905092158   22.56156585877233    3.46939382446751
C          -2.54656229295521   23.98721940828754    3.50248737754873
C          -1.50059815919620   24.60018591461314    2.94635422305641
H          -3.67468783335382   -2.54665781951354   -3.86585578441601
H          -6.45100341211500   -0.23865412830659   -4.94022301970335
H          -6.12728342630420   -1.98373354298287   -4.76882265356800
H          -4.64652438386821   -0.05267933139116   -6.63145406275840
H          -5.82776896022702   -1.26655216871232   -7.13372312897859
H          -4.27372261972537   -1.77127049068969   -6.45954551840106
H          -0.29804401249069   -0.36534172237617    0.14393423255117
H          -1.09336696198190    1.13492414480999    0.66984530849679
H           0.86636634080502    0.83345191622375   -1.66998310881900
H           1.21775199314682    1.60598121521299   -0.12118399326929
H           0.06498914862363    2.34626376405846   -1.24000102574655
H          -2.18997833518525    2.80316570199751   -0.30779138541448
H          -4.28968927082602    3.07667547360253   -2.51304513843931
H          -6.49361239816905    2.91540635308838   -2.34851734529170
H          -7.62112680263070    3.80505046392152   -1.29559562928818
H          -6.00851767717727    3.35034300006473   -0.68815250427661
H          -7.58387308869391    6.49502595528887   -0.52314084961137
H          -7.69842103327037    6.60631392669057   -2.30145062387229
H          -8.09398894335473    8.01947878919234   -1.28672170570265
H          -1.90544060855022    7.31715555479501   -0.05307028127626
H          -1.79702258086013    4.91515327580040   -0.52683046941984
H          -4.83080864614365   10.81941790572062   -3.11334262645942
H          -5.39553157858368    9.14411572500625   -2.89645664612568
H          -2.50209881969698    9.99140568097608   -3.44794030127724
H          -3.60201115418578    9.27328266255383   -4.62871883046846
H          -3.05323511074778    8.32269542080729   -3.24449352323985
H          -1.57799978596135   11.30723150353652    4.09841460770206
H          -2.19240155394645    9.65477124229084    4.27618785132907
H          -3.93547723331749   12.16421847373929    4.53981743247987
H          -3.31405289601243   11.19803165777455    5.88373935630448
H          -4.46489478614716   10.49258596485478    4.74542761216332
H          -3.57552440505233   13.51871172594738    1.03534911827531
H          -1.93215405539912   13.24723389346668    3.60449630290283
H          -6.34064748300323   15.20678051390801    3.03592247644247
H          -5.47960858197937   13.72956341834981    2.53950815142134
H          -4.84148878349770   14.73139166989946    3.86862791069963
H          -5.77939997245519   19.04484148846047    1.13203964767282
H          -5.80326157106406   17.91743440161104    2.50535698882417
H          -5.65052129582515   17.28955825489872    0.83473641202803
H          -0.04532947415980   17.50635148366795    3.50057458590707
H          -0.44760518766746   15.08443646551675    3.66432759622800
H           0.78895179876469   18.51659955255724    1.60221622105196
H           1.07390388682515   20.13045501420143    0.90470722453265
H          -1.07070456058313   18.15128613834231   -0.03678349780204
H           0.45963714919254   18.47199714201757   -0.86239789104142
H          -0.75978474021343   19.74485111015833   -0.73474410803437
H          -5.64387973347264   21.77671434672271    4.88068528826714
H          -5.21760126500057   23.41206222965034    4.32663518542923
H          -4.05638760216008   21.95028105017919    6.75926381503807
H          -5.19958984887086   23.29591808460703    6.81421518697389
H          -3.54886147057127   23.55768742178800    6.23516556706966
H          -3.31343184705293   24.56317771217487    4.00212566527069
H          -0.72606262144955   24.04655479644657    2.44294691377290
H          -1.39731468504716   25.67105107706427    2.98295328613995
