92
 SCF done       -160.776112258423          0.000386602058
C          -0.83752910014996   -1.55297459876573   -1.52460697657825
N          -0.67138692766924   -0.61455418534819   -2.49123916754414
C          -0.18292821104609   -0.84984765025451   -3.82642977616803
C           1.32996216830426   -1.05262129574865   -3.84274845939744
C          -0.97487699697999    0.68145596409137   -2.00990171999428
O          -0.89846894849536    1.67972514685530   -2.70008214162660
C          -1.35932543282430    0.46288074808874   -0.63832717132438
C          -1.26097829821630   -0.93946630150385   -0.37712396228583
C          -1.65884087954281   -1.16840879201021    0.99729320820402
O          -1.74303013860053   -2.17337203511646    1.66744934297599
N          -1.97813114521091    0.11600830832924    1.47711514808016
C          -2.38301426522772    0.31444857171041    2.84701893702139
C          -1.23474399746419    0.82793273897598    3.71299299833157
C          -1.80194495316562    1.09473260764744    0.52033069249769
C          -2.06367097154658    2.46540934342672    0.75036710292196
C          -1.89038123614564    3.42251833705259   -0.20393846847950
C          -2.15446725228723    4.79945413243966   -0.01586551499141
C          -2.03373987990065    5.78131504400242   -0.98662851865217
C          -2.41110965748177    7.03438839361780   -0.44346689050402
C          -2.76401254427455    6.77650224789135    0.96087008815287
C          -2.60918473621366    5.44441544368134    1.20132192571345
C          -3.17421777249569    7.69900558962068    1.92446087733641
N          -3.51021995275141    8.40716651608001    2.76606481148867
C          -2.48027723668960    8.25442038893958   -1.09532035808419
C          -2.93438912627880    9.49251827761033   -0.59011565252526
C          -2.89970919420729   10.43531907471649   -1.60705191389766
C          -2.38372331543347    9.78620095294451   -2.80243909539090
C          -2.12492090855755    8.48659123414063   -2.51230913728746
C          -1.59641270201425    7.56873355726407   -3.42630712932298
N          -1.15547461638982    6.86290773303438   -4.21843148793106
C          -3.30067076066553   11.78071539523844   -1.56776210861898
S          -3.27474001865096   12.76087659879088   -3.01049659767761
C          -3.91258668988033   14.15558251628616   -2.18949699426745
C          -4.12120179730097   13.86602052551061   -0.83469125540150
C          -3.77985986838208   12.53481397508378   -0.48482651165511
N          -3.91521555530128   12.09023508199117    0.78641494247896
C          -4.36984544742263   12.94316588767793    1.66297471791258
O          -4.52536335703005   12.61032191836029    2.92863249787346
C          -4.16982505935135   11.27191551093559    3.28335685861591
C          -4.35516086963498   11.09843478502943    4.77699416038861
C          -4.72655464268228   14.30951822556682    1.29404790958489
O          -5.18363314922641   15.09273086314206    2.25731984857101
C          -5.52522961370300   16.42555601017344    1.87925708695490
C          -5.99200318704940   17.16215896851196    3.12071335599230
N          -4.60107103831181   14.74670414403778    0.07457323650513
C          -4.17530246149312   15.33635374994289   -2.82959894399443
C          -4.43878449268753   16.39474181049392   -3.38551912500786
C          -4.74051950785014   17.54659964879000   -3.98268701936274
C          -5.04109557287804   18.60627038155289   -4.51537181726349
C          -5.38390681448686   19.78647610961237   -5.12361378116761
S          -5.03353865271269   20.11380021242871   -6.79148274251750
C          -5.72733852683555   21.70210421934614   -6.73918458803329
C          -6.24831793557095   21.96257937125070   -5.47037889720761
C          -6.03925149957804   20.88343582808809   -4.54512929442403
N          -6.44822441548581   20.94057855558484   -3.26724160433109
C          -7.06764468914681   22.02949055678128   -2.91611704685754
N          -7.39218719890589   23.06655337295753   -3.70779144937201
C          -7.00647069498392   23.03667151196906   -4.95230640402640
C          -5.66372083824224   22.50142243559499   -7.92654797569060
C          -5.82052487796538   23.82383333037157   -8.00290276311434
H          -0.65146732733067   -2.59255216245904   -1.72188376603894
H          -0.44594478689040    0.03483872938311   -4.41258215745541
H          -0.69008097066555   -1.72417393374841   -4.24509662760213
H           1.82812421382152   -0.17137954103466   -3.44623639208656
H           1.66965271278633   -1.21574837527625   -4.86160352380233
H           1.60934356635567   -1.91298051950056   -3.23826175886581
H          -2.70381324564944   -0.66617830407531    3.21026112288406
H          -3.23633695476337    0.99804398653229    2.88355350428337
H          -0.41724921037298    0.11131586897380    3.70439306430175
H          -1.57378206954665    0.95621704023634    4.73738678510843
H          -0.86167593762579    1.78098585121264    3.34410606614015
H          -2.42470928891923    2.74423690772315    1.72939233829690
H          -1.53455405701643    3.13236342781184   -1.18380958238212
H          -1.71840512597155    5.61237869672055   -1.99751921634283
H          -2.78995635715954    4.95798777372887    2.14194296203852
H          -3.27296643823252    9.67904909773983    0.40904364636274
H          -2.23487413021453   10.27656283550522   -3.74740614154373
H          -3.13189868737504   11.08773555642393    2.98875657684283
H          -4.80174426149983   10.57446396716740    2.72522165184705
H          -3.71105419370852   11.78335486379571    5.32178025827066
H          -4.10008437849609   10.07683137301577    5.03958883231688
H          -5.38717666066626   11.29450034638483    5.05442013171686
H          -6.30962498991780   16.38779295738083    1.11483479404582
H          -4.64671430341620   16.90452513097240    1.43246332534858
H          -6.84950542996988   16.65573438822199    3.55507812592071
H          -6.27255249982858   18.17770611874440    2.85780533131235
H          -5.19654334321541   17.19149278758796    3.86021429293824
H          -7.38574180456996   22.10534670441975   -1.88511999949317
H          -7.32675471731378   23.86195218701663   -5.57395129742494
H          -5.42763545508889   21.94483960352494   -8.82554105148863
H          -5.99803718196297   24.43987195314143   -7.14001574067407
H          -5.74972922297716   24.33158768812155   -8.94847484010180
