101
 SCF done       -197.842593241398          0.000732228143
C          -0.63528939071202    3.48570929017712   11.21198811238183
N          -0.34866471916435    4.75559192534290   10.84316749363629
C           0.70753533223850    5.57737442385442   11.38093635993800
C           0.34025076151967    6.12364517391225   12.75797703332164
C          -1.27193996434892    5.23417455776517    9.87958643626770
O          -1.19336329627448    6.32907461964469    9.36464657693749
C          -2.18356645981390    4.12776375373438    9.69438917791123
C          -1.74326243530931    3.05651425255603   10.52580199719889
C          -2.63683411947218    1.93174984243058   10.31843888498185
O          -2.67267223605794    0.81931903098400   10.78690417373982
N          -3.56733048417516    2.40942031012687    9.36823676417586
C          -4.61954573661920    1.55784992862288    8.86684196651981
C          -4.28277684745896    0.98375206877881    7.49239681017459
C          -3.31418768601486    3.70792863640606    9.00014316951856
C          -4.11158435225605    4.43803533137564    8.08076902554268
C          -3.94209459188558    5.76629453261227    7.85687550670697
C          -4.78218053638735    6.52406786526604    6.98922584115987
C          -5.35957781073437    7.73615131756844    7.32538838830826
N          -5.20030564899390    8.44012716406568    8.53419971417709
O          -4.62721250925569    7.88729101168115    9.45753268527849
O          -5.65423045821394    9.56998347566976    8.57986324310883
C          -6.30069219856639    8.13028934727446    6.30872154032982
C          -6.26888013639091    7.20870884423269    5.32023153670839
C          -5.25324825843996    6.22342129536955    5.62149221378424
C          -4.69515643927620    5.32232616142718    4.74397754268502
C          -3.77216032109930    4.26267398876852    5.06630008342497
C          -3.78047301216931    3.35033565536197    4.06559545585216
C          -4.63496284173397    3.82623792691083    3.01089208118817
N          -4.79752482467523    3.11435182039342    1.80956814446423
O          -5.49561105234557    3.59149703467985    0.92742061993949
O          -4.23294261744132    2.03798128889091    1.72296179890488
C          -5.11720779681651    5.08847743126373    3.34236882890182
C          -5.74386197792242    5.97088532566677    2.43025509864784
C          -5.62532063126372    7.32743232953421    2.44566636487277
C          -6.20217056666045    8.17815592425715    1.47231279811353
S          -6.08419870097927    9.91068390347525    1.66518758868058
C          -6.96764425070011   10.19421620327935    0.20102455738012
C          -7.31764933966053    8.97645883374085   -0.39910176609557
C          -6.89449096099378    7.85436306728615    0.31823573369095
C          -8.03745198013157    8.91128253554481   -1.60691989027384
N          -8.62606679906631    8.86126924261845   -2.58876446017146
C          -7.27693306219731   11.47980626565572   -0.29524842519617
C          -6.99904544688166   12.64203131050332    0.34775748132647
C          -7.30063245851055   13.92548006869717   -0.16691855725257
S          -7.95982289749840   14.20154108261938   -1.74482319956796
C          -7.92562068281697   15.90868665147763   -1.50895228270519
C          -8.42531849754022   16.78149734185522   -2.59460794061051
O          -9.22801749366880   16.40715472389185   -3.40155856813355
O          -7.92708221690576   18.02534537685051   -2.61141044490656
C          -7.45351752318680   16.25983025594596   -0.27015342679833
C          -7.08987249555467   15.13777062643012    0.49620653289847
O          -6.67778904926554   15.12993440214579    1.79011762397856
C          -6.03336738453164   16.14481148035603    2.36300506740747
C          -5.21086327803891   17.13054473359281    1.85798634046808
N          -4.74061680761073   17.31098478771675    0.55216045629293
O          -4.88963639848370   16.39042604068931   -0.24659758043882
O          -4.21276212279162   18.37335825557744    0.27509436657274
C          -4.80409652117334   17.99244521382257    2.95316505682373
C          -5.31159085293347   17.51504764624520    4.10736788928027
C          -6.10956328332116   16.34335761483059    3.82802966273244
C          -6.88264647822011   15.61058475326086    4.68954306561736
C          -7.95628670365844   14.71522470432182    4.31764497238384
C          -8.70595916592685   14.45940659210920    5.41016033390930
C          -8.09584278386919   15.10840108723887    6.55511930680932
N          -8.63817865580113   14.99216733624939    7.85513919183038
O          -8.07808473583836   15.56139364707815    8.77368140649582
O          -9.65556337709727   14.33522779686379    7.96933228658768
C          -6.95614296163233   15.76909172536921    6.16207747169320
C          -5.97560468346074   16.36107160283957    7.03151076686030
C          -4.65844440533237   16.29420098160710    6.83203721246806
H          -0.03113695805879    2.96490680699879   11.93211331050419
H           0.84847634094458    6.40237456335671   10.67772925129313
H           1.62722976004365    4.98775760632988   11.43482741261703
H          -0.56379397753298    6.72421445950899   12.69354637918859
H           1.14657186768533    6.74755456061669   13.13263505276498
H           0.17068773936664    5.31156558178053   13.46181046467929
H          -5.56047894326756    2.11417070220756    8.83951770155352
H          -4.71432577408217    0.74174470005470    9.58853991221445
H          -4.15942581885731    1.77172828810404    6.75250579427646
H          -5.08116271330094    0.32302468473223    7.16666869785370
H          -3.36056519290996    0.41063027300799    7.54660079258886
H          -4.91925955965411    3.91409172945028    7.58797042714610
H          -3.22227656592069    6.31801672964157    8.45157621426926
H          -6.92950328063366    8.99613903229237    6.38928254949353
H          -6.90137172990308    7.18605774378670    4.45622742628484
H          -3.19718291639521    4.20488931370114    5.96724881775143
H          -3.23637179013356    2.42642222777166    4.01015247668298
H          -6.23667762029829    5.49740084775700    1.59239327434962
H          -5.04054856259397    7.81188064949527    3.21614577565255
H          -7.07272918536816    6.84594303151363   -0.00876802027924
H          -7.77900478969363   11.50910891041549   -1.25461419696753
H          -6.51935886752278   12.61940192981317    1.31870018733258
H          -7.18900173829842   18.15398199361685   -2.00066392865338
H          -7.42734813144805   17.27009431480773    0.10294973782758
H          -4.18556207064190   18.85705041596879    2.80707663952560
H          -5.19381020954491   17.94754469391568    5.07944920020485
H          -8.16208010699791   14.39049511130109    3.31832704968696
H          -9.60517937998603   13.87690416704132    5.47662276479618
H          -6.36364220215974   16.77976134377577    7.95105206081014
H          -4.23168790401772   15.79719299870193    5.97617674331904
H          -3.96739939927672   16.70737981021194    7.54563873259178
