77
 SCF done       -130.203896223600          0.000366420443
C          -4.60584730883526   -1.63038539809705   -0.31220477612584
N          -5.62581584954868   -0.90263291085362    0.21429051746524
C          -6.83061707292049   -1.43568145594971    0.79893852772366
C          -6.57230161566085   -2.02295161722702    2.18393320634938
C          -5.34367752888997    0.48556075194510    0.17824711452368
O          -6.10461458830728    1.33606790552733    0.59156466512055
C          -4.04031000280527    0.55154900035836   -0.43529793002555
C          -3.61629141860943   -0.78251977674805   -0.72576639931399
C          -2.30840731430165   -0.69527502266866   -1.33803540011071
O          -1.53925779573873   -1.53501749555075   -1.74771930868724
N          -2.02832992441900    0.69282055830477   -1.37539688496081
C          -0.79682238452004    1.14389971102070   -1.97524960673378
C          -1.00294701428917    1.61119399706190   -3.41474001932926
C          -3.05862309859695    1.43844377650742   -0.84506563250718
C          -3.19112063163394    2.84885337262072   -0.66940398011764
C          -2.36913189566419    3.85471591159545   -1.03195462960583
C          -2.62088820112004    5.24862723820693   -0.76681405702422
C          -3.75664417546386    5.76645905326515   -0.12183754715502
N          -3.91549359613580    7.04808260680344    0.11260953851349
C          -2.95386992638872    7.88252037700742   -0.28586943779386
N          -1.84463374798433    7.50593503516059   -0.92391355463730
C          -1.68768481424367    6.22329079395926   -1.15594882334095
C          -3.12740241246992    9.29836725845303    0.00311082403765
C          -4.25205398703260    9.78615190537173    0.67858438414905
N          -4.40041512884449   11.06065022260540    0.96312152233712
C          -3.43107861559162   11.88982651654807    0.58347263895832
N          -2.33208357552406   11.53675956234232   -0.07727870009814
C          -2.18222780879400   10.26221303499254   -0.36466514013948
C          -3.58860974255455   13.31164863846159    0.93683083580397
N          -2.78453248488161   14.18738087021369    0.34076182288168
C          -2.93047245510041   15.45402261682179    0.68849920981243
C          -3.86394886587596   15.87294103870929    1.62082507997550
C          -4.67479805032678   14.87885135497626    2.18809090801787
N          -4.51813514490665   13.60313596573712    1.83026271502229
C          -5.70775243021825   15.11258184212566    3.17230896474678
C          -6.04286901477110   16.30319566946543    3.69784369081171
C          -7.05653695167767   16.48653306982149    4.68606537992477
S          -7.97608608628687   15.14811509396251    5.31625569227352
C          -8.82959703520828   16.18481006861212    6.37799086023486
C          -8.44262943860265   17.48762449113716    6.27096991422412
C          -7.43659935460540   17.67041164032582    5.28983169132315
C          -6.84725955087865   19.00558229375941    4.99949777440740
S          -5.10830385976614   19.08549903254631    5.64468850123249
C          -7.69662451865734   20.14050587407947    5.56496200663527
C          -8.14961800307015   19.85430628112283    6.99337205018165
C          -9.05583786706534   18.61706123812307    7.05623656367578
O         -10.36860058077712   18.89520608136607    6.61163970134268
H          -4.66033381058399   -2.70238548741402   -0.36203677336445
H          -7.24710259903001   -2.19769112605653    0.13322264832528
H          -7.53258374581363   -0.60063449506025    0.87278970936791
H          -5.85414393610992   -2.83820708507190    2.12873365235243
H          -7.50011165428405   -2.40271000045949    2.60229141256997
H          -6.17872646574531   -1.25675761299972    2.84732710299750
H          -0.13101164032418    0.27502467346793   -1.97308188977999
H          -0.34884325167580    1.92450889266543   -1.35570074430602
H          -1.35754112835201    0.78079930984019   -4.02024628746206
H          -0.06183729886429    1.96399700155370   -3.82796720284339
H          -1.73627420436476    2.41300131526666   -3.46936048141869
H          -4.11608652376068    3.08978376425297   -0.16127027338236
H          -1.44420563795775    3.66605566574075   -1.55614228201599
H          -4.56383934732057    5.13043226806883    0.21713690290765
H          -0.77647162775672    5.94643008984810   -1.67465518867596
H          -5.04168618433832    9.11667643848889    0.99273232295975
H          -1.28546654148673    9.98243625226365   -0.90137579829137
H          -2.26836422731537   16.15536932133158    0.19579158324757
H          -3.95405301526135   16.91162611560342    1.89181026768881
H          -6.22492233634921   14.21565760595311    3.48557532567091
H          -5.52268593348095   17.20242712514867    3.39759852452307
H          -9.57975491433909   15.78303727583284    7.02963177053666
H          -6.70405063169706   19.14891526046070    3.92504478301650
H          -5.38363358767500   18.64817333055025    6.87007885705072
H          -8.56922704815710   20.27550066390898    4.91852169476549
H          -7.12046141902408   21.06677194716747    5.53684325116055
H          -8.70243933773487   20.70876145669278    7.38619625020256
H          -7.27950784531667   19.69243173700818    7.63248382021687
H          -9.18968523158262   18.31041945360220    8.10000673535820
H         -10.33828600471928   19.13204076839941    5.67755583266343
