125
 SCF done       -230.888479715572          0.000838820064
C          -4.08205287659661   -0.50383789585367   -0.98498845124810
N          -3.81172219691710    0.29483458908856    0.07411252905702
C          -2.51234973370175    0.52354087004816    0.65690815862850
C          -1.65992670758405    1.44082618037438   -0.21530756993139
C          -4.97642410328044    0.95933190278010    0.52676280739362
O          -4.97523862495211    1.73741948262457    1.46352118886311
C          -6.01813591799227    0.48007498099194   -0.34917192603632
C          -5.42190213711446   -0.42134136111137   -1.27446081937314
C          -6.46394599755562   -0.91081397225493   -2.16298788948169
O          -6.43912808415562   -1.67504423385729   -3.09773996430397
N          -7.62962014281930   -0.26474568783402   -1.70591823173669
C          -8.91461322526444   -0.52637414703183   -2.31299171768826
C          -9.72399709054530   -1.54014041450632   -1.50917026401780
C          -7.39050013216636    0.55308792119989   -0.63016089896303
C          -8.39907185078244    1.29125528117975    0.02328089775004
C          -8.11555008639122    2.06442803068355    1.11620153326410
C          -8.98608002922210    2.85875348241871    1.88868658935892
C         -10.24570361648860    3.43760851474277    1.65070883366270
N         -11.15856029623958    3.26164677843868    0.59984964197621
O         -12.03123913183190    4.10465580605846    0.47672102054260
O         -11.06255347308256    2.28506767503649   -0.13096868266834
C         -10.52335709140403    4.38197290931433    2.68440448410806
C          -9.47167871254199    4.41852608309899    3.55670818928338
C          -8.49895275109233    3.47339099119298    3.13267431971322
C          -7.37172950634454    3.06089306874133    3.84238866606494
C          -6.88236188428211    1.73561535938688    3.89697357863462
C          -5.91799676537159    1.64717207324663    4.87535194999624
C          -5.71697114372431    2.92523738843919    5.44093750760606
N          -4.76842521231890    3.16608485017820    6.44308895944991
O          -4.07742811443097    2.22437082345815    6.79726663073487
O          -4.67915865028849    4.28814234206976    6.92616537375448
C          -6.57668813919152    3.85231598400158    4.80104944518388
C          -6.49642970307137    5.23203050900945    4.94306352203075
C          -7.07196836654247    6.19896628244463    4.13806307779022
C          -6.96831452370816    7.55893013642165    4.40455240460187
S          -7.71302976441448    8.73228559159915    3.32766947298507
C          -7.13612677375006   10.09544392577783    4.24605217218068
C          -6.41454811423130    9.65175065679007    5.36380445904149
C          -6.33509386072061    8.24322915882035    5.45577704677888
S          -5.47239667652291    7.73507478966185    6.85608143152927
C          -5.25392326200287    9.39775528530894    7.32880937253601
C          -4.53386785702624    9.70333942593104    8.57477225413522
O          -4.42887347686967   10.80867548202253    9.04146184075557
O          -4.02179510728391    8.58818003705822    9.09653508024760
C          -3.29988374421105    8.70762476397608   10.32334916245384
C          -4.24072640839198    8.70698064542313   11.51897485929317
C          -5.80376471913929   10.29648617712072    6.46325214447601
C          -7.36212873439841   11.42812698135376    3.84189662611153
C          -6.43365080692918   12.47848901634511    3.82571414109445
N          -5.05252899110669   12.40797986837257    4.06677220353398
O          -4.54034741940549   11.30740582693363    4.21733504577808
O          -4.43261584076472   13.45751315285301    4.07723814482202
C          -7.06173226584368   13.64362502735653    3.29633958112208
C          -8.34835263468228   13.33474967032433    2.96052476911091
C          -8.60052135317792   11.96803680594972    3.29144970913945
C          -9.84787564075832   11.34726927870277    3.33136133574618
C         -10.27829934999871   10.38777566714890    4.28343793230677
C         -11.63598594490356   10.22950735070180    4.17807950389598
C         -12.11004994467819   11.04249916376308    3.11309430781978
N         -13.44749767740334   11.04234861561522    2.68068632203204
O         -14.26363561811249   10.49186888710685    3.39979587683454
O         -13.72011160361687   11.58428133525638    1.62208286877927
C         -11.03376578229253   11.74056434950034    2.55093034083322
C         -11.07520404128264   12.57696372922361    1.42497568743259
C         -10.02489479299712   12.79170317972837    0.56983190639090
C         -10.08892048750986   13.70662934429439   -0.49414680668343
N          -9.14873718943291   13.80380408393530   -1.49283167811724
C          -8.00505172715270   12.94249820289759   -1.67560003343717
C          -8.40577725881201   11.57736907498099   -2.22798378523243
C          -9.45976884269886   14.81083444834618   -2.42077711279658
O          -8.77568082364822   15.06711428357678   -3.38857783147012
C         -10.68895123580669   15.39467060785032   -1.91580671216861
C         -11.04531340441030   14.70284568033297   -0.73935130081322
C         -12.23767271611713   15.32005404422306   -0.20005194764212
O         -12.88547465902039   15.11510356398773    0.80125640139824
N         -12.54774385354760   16.33963970050586   -1.13291584143193
C         -13.67511252560214   17.21444776369114   -0.91622321450716
C         -13.24776814447153   18.54327182685613   -0.29759959266989
C         -11.63304255401321   16.40182267812788   -2.14372185856896
C         -11.69696802095057   17.34729397390752   -3.21759759139947
C         -10.77869409499664   17.40696714421509   -4.18712363459360
H          -3.31175790762596   -1.08406971263491   -1.45819959091948
H          -2.01170058460303   -0.43779239457900    0.80240197204410
H          -2.68692591209668    0.98962121125253    1.63025851031127
H          -1.49288429506570    0.99675739822885   -1.19406604737985
H          -0.69810833647376    1.60923975214084    0.26013914710500
H          -2.15525427183136    2.39960471959953   -0.34715374664053
H          -8.70289809296301   -0.92981495200123   -3.30692696577380
H          -9.46719582216004    0.41017827137487   -2.41710312688066
H          -9.17347621259711   -2.47389074193720   -1.42123907712163
H         -10.66459712475839   -1.73674433822016   -2.01499243359049
H          -9.93928239826502   -1.16307034634155   -0.51238709398971
H          -9.40956003881484    1.21836395813922   -0.34547993193981
H          -7.08799583537006    2.07806121028239    1.45591790168797
H         -11.43643219781871    4.94400935081785    2.74073731162484
H          -9.42790085727220    4.97415613071180    4.47371893348339
H          -7.29041410849168    0.90622046368137    3.35294655138212
H          -5.39441158152983    0.76302448478305    5.18712979335523
H          -5.85870877229207    5.57000052379840    5.75041140606757
H          -7.60621949130639    5.91420685972839    3.24315450128212
H          -2.71504779080568    9.63283596642694   10.29892722619243
H          -2.63513013685841    7.84228441895834   10.34205429382370
H          -4.88759971889696    9.58055184022571   11.48557456609990
H          -3.66047727453176    8.73498138415028   12.43644331846652
H          -4.85421156599226    7.80923880626224   11.51336113515524
H          -5.76776291670275   11.35690259604129    6.62898835806811
H          -6.56347543096081   14.58766387280136    3.18521989916389
H          -9.08969719409556   14.02030273518320    2.60040981317720
H          -9.65773987628456    9.95569854557177    5.04453582529223
H         -12.26770963671870    9.60501354080447    4.78108942498480
H         -12.03815163794578   13.01867109817301    1.19305948944136
H          -9.11943721426541   12.21242195926946    0.68657941660373
H          -7.47236886480265   12.83833601298171   -0.72582995782747
H          -7.35372503982005   13.45319942596850   -2.39010987633302
H          -9.09269734494491   11.06948266195945   -1.55460853773892
H          -7.52169903574663   10.95981645079138   -2.35787640778189
H          -8.89152389606083   11.69529182185017   -3.19335836903004
H         -14.33906295007927   16.68662535424553   -0.22601957299831
H         -14.20241176319750   17.37353622604477   -1.86016251347111
H         -12.76920777335433   18.36852581537696    0.66278469757065
H         -14.11984890504090   19.17138474325153   -0.14037926181233
H         -12.54795076069040   19.06930226289650   -0.94343128498098
H         -12.53734234550521   18.02741867663601   -3.21972297521078
H          -9.93097014452999   16.74195590998452   -4.20667472271148
H         -10.85818517631529   18.12716317449298   -4.98294995063583
