112
 SCF done       -214.694797367190          0.000424716789
C          -9.49034986196517   -2.22433845072771    2.29810970901559
N          -9.17352004290879   -1.96783239059073    3.58756928370130
C          -9.02782957395495   -2.94568896541396    4.63768418760578
C          -7.72289535813727   -3.72508294690274    4.50197910142267
C          -8.92589711093577   -0.58597434962253    3.79295070567593
O          -8.57630894150005   -0.12141402657192    4.85594837688240
C          -9.16235481949526    0.00435069764907    2.49412931667721
C          -9.48922778158236   -1.04755977084448    1.59090175107891
C          -9.69262471915531   -0.46422284170390    0.27674306570928
O          -9.96859123160096   -0.94552260744747   -0.79580637982528
N          -9.47074612518335    0.91500543779925    0.48130538887840
C          -9.61997025239252    1.86049423872398   -0.59882758960280
C         -10.96713189504006    2.57638742542548   -0.54793885083262
C          -9.18044124103235    1.20780740632270    1.79221358558909
C          -8.95255999193799    2.51919189467848    2.27435216677164
C          -8.84137702838122    2.80459846193493    3.60116744466348
C          -8.67043564783301    4.11313422305073    4.11942452965307
C          -9.29905560747127    4.60355185539761    5.25533385270775
N         -10.16310964337506    3.91183918100588    6.12618747214810
O         -10.47724328981378    4.48036597029411    7.15758060435950
O         -10.55406694517843    2.80292487150530    5.80457544544698
C          -9.07957804634666    6.01930116304007    5.35371881059893
C          -8.31038460170384    6.41310345425415    4.30892641045176
C          -7.92350058370208    5.25665337262190    3.54485145521648
C          -6.93333380082756    5.17290843058561    2.58996775261584
C          -6.43744371071364    3.95704309638781    1.98270083958132
C          -5.74600423228046    4.26719998441653    0.86388925627245
C          -5.72894761577921    5.70159107431926    0.72617617075983
N          -5.04722900412665    6.35721266116561   -0.31098268474526
O          -4.57562738887250    5.66395532311022   -1.19577616295567
O          -4.96104194831732    7.57649546409967   -0.27628134150159
C          -6.34933080178614    6.28682960084441    1.81997903371919
C          -6.38207574018907    7.69322832996192    2.05645419961490
C          -6.06507450900972    8.28888959089296    3.23153255682249
C          -6.03442564133297    9.69649390300664    3.41013464630600
S          -6.65016298175087   10.78709350909699    2.19507978339567
C          -6.27124943893036   12.14314665163805    3.15342443140769
C          -5.69362812942554   11.81306208518498    4.35206592762339
C          -5.17548356598528   12.79676003212532    5.21816374469566
N          -4.71287959304270   13.62166410959725    5.86568327532417
C          -5.56243446572322   10.39845582129932    4.51785540239606
N          -4.97658269571535    9.79289779986377    5.60249933678891
C          -4.98157991328838   10.27727182401662    6.87412318760975
C          -5.82672540663876   11.20806135375620    7.42996091613011
C          -5.42256891299109   11.44365658626853    8.76725065191766
C          -4.27473061815914   10.54264589763604    9.02106898416074
C          -4.03029078075426    9.84535934983686    7.88178043571715
C          -3.56911097004945   10.39905977985515   10.22070822809490
N          -2.98487866371494   10.24263053420754   11.19734861505202
C          -5.94756864812691   12.35583000722806    9.65436737866017
C          -5.49449749080274   12.63606998663485   10.97123328208005
C          -6.24824671786179   13.66293886283695   11.50476123998621
C          -7.23323942140033   14.05198583506300   10.50524410437533
C          -7.06653572689276   13.28189666590317    9.39856875264691
C          -7.82756869250148   13.35753230539486    8.22749510974267
N          -8.46867107377363   13.42466262662932    7.27607139512843
C          -6.10458696676564   14.28875988740351   12.76733900448746
C          -5.15435809171880   13.94423910276714   13.68034569602744
C          -4.98742779671144   14.61629620987017   14.90865086539715
C          -3.94838425471342   14.47520871768469   15.78257345182837
C          -4.09262285236340   14.94463382932896   17.18724032954048
O          -4.95995318151399   15.66559217788960   17.62342654878194
C          -2.99141173683693   14.29589139384986   17.92744841195085
C          -2.73586936218406   14.30846777003386   19.26838299046767
C          -1.62921947366936   13.58309595816482   19.76362587370033
C          -0.81303733272992   12.84778294925145   18.85569248858924
C           0.28481486788942   12.11956304076175   19.35650621432847
C           0.56181098034519   12.12476498953128   20.69469518596879
C          -0.24487542192354   12.85391936927089   21.59150853904632
C          -1.31800479177580   13.56796320770575   21.13730711371544
F           0.05015662773545   12.84024202663834   22.89842945465840
F           1.60682019877172   11.43405487257189   21.16886676387937
C          -1.09977836968437   12.85707017424200   17.47136051681438
C          -2.16799937701727   13.57980168989635   17.01185522333472
C          -2.67115652347516   13.80657740738929   15.65731688292361
C          -1.94598304499072   13.62036637325805   14.50935560561353
C          -2.31704098890460   14.10112625691985   13.23484066295129
N          -2.53406097636872   14.51406743605964   12.18639925759023
C          -0.66363323093883   13.03074943990710   14.48524711947657
N           0.37788322009770   12.55444761130619   14.41389202107084
H          -9.70518720854556   -3.22297372270430    1.96443804054605
H          -9.88331112660505   -3.62646970354522    4.61258301142700
H          -9.03671308121021   -2.39172378398236    5.57991397130569
H          -7.69058692694620   -4.26182356078485    3.55640173403293
H          -7.63809167976334   -4.44251591789665    5.31292183260067
H          -6.87433278842899   -3.04700587104266    4.54751620961825
H          -9.55076928714880    1.27668063912196   -1.52092058634235
H          -8.79396930985083    2.57730859957211   -0.57369220086960
H         -11.77425613252318    1.85245453517442   -0.62612741132861
H         -11.04430360263989    3.27262919418494   -1.37818876079223
H         -11.08484380271619    3.12596753374200    0.38357757384719
H          -8.91863632303611    3.32162737675486    1.55052357037611
H          -9.01633925339005    2.01637279540683    4.32538975297069
H          -9.50363697497646    6.63165480126331    6.12680626679259
H          -8.01050552842628    7.41855684893061    4.09945876116643
H          -6.57784497277288    2.97655754408941    2.39032079478921
H          -5.24938065398938    3.60250085317737    0.18353396272799
H          -6.52345280509104    8.32239104129154    1.18582173448280
H          -5.77163533868624    7.67853466036684    4.07722422115940
H          -6.46744993002255   13.13416811531135    2.79331198969290
H          -4.49915024218361    8.91617393477690    5.44168249813236
H          -6.66258203089549   11.68072334019137    6.95679220703928
H          -3.25690708460194    9.11542363555776    7.72685068582617
H          -4.67169496996783   12.13906955639811   11.44308334340050
H          -7.96373990170501   14.82886211586149   10.63830762549774
H          -6.76488602830613   15.11947839123315   12.98330594914725
H          -4.49912759098159   13.11395339297936   13.46305470531430
H          -5.78619202784875   15.27296857531810   15.23818982825164
H          -3.36952054298802   14.86433989581812   19.94257234414465
H           0.91440262850377   11.55919289844826   18.68313934844657
H          -1.92567087551502   14.12063401817247   21.83658202416533
H          -0.47058808429284   12.28426398874265   16.80922045486802
