100
 SCF done       -175.178482146686          0.000443477765
C           1.31929295115415    1.98659596385880   -6.46711454766621
N           0.21544819597396    1.31115275163187   -6.05517216167794
C          -0.30375579441909    0.10218366787560   -6.64230963623690
C           0.52866135345785   -1.11488739832658   -6.24728587530056
C          -0.36210084715077    1.91003949304896   -4.90456167033885
O          -1.37304684120738    1.49737174163690   -4.37968440538937
C           0.51043377258457    3.02759858950658   -4.63066805310204
C           1.53212418449519    3.04833080514971   -5.63338912943720
C           2.37427679711633    4.19506673007989   -5.37461056731694
O           3.36798822197313    4.61889989825729   -5.92223905233472
N           1.78262326328620    4.81842364439846   -4.25116059641441
C           2.46036725517373    5.92658808576861   -3.62061709964581
C           3.00571798665699    5.56400303615781   -2.24288131251513
C           0.68143196217200    4.11994197632059   -3.79899291502314
C          -0.17696234982265    4.42522988845115   -2.70014298784377
C          -0.43877738645877    5.64468693909484   -2.17859467502592
C          -1.35873969591090    5.86769758902225   -1.11735096749896
S          -1.90598654512683    7.51062697823183   -0.81124298354017
C          -1.97934306121998    5.01270450596760   -0.23386403202242
C          -1.96594906882024    3.57996180115407    0.10709514895903
O          -1.32975406910651    2.66768252322300   -0.36108707218602
N          -2.87349914077084    3.45184125261880    1.15222727836760
C          -3.14305234859782    2.18894871291546    1.80445283689019
C          -2.15915569604046    1.93162161721837    2.94061724360769
C          -3.45767163340094    4.65181557903681    1.54696275790916
O          -4.25690804609631    4.77106864806699    2.44325944086778
C          -2.87513295517564    5.65719489156346    0.65109778954529
C          -2.98907227805945    7.01666321869787    0.47695382056357
C          -3.87016207398878    7.91487490342901    1.12947119314532
C          -3.99001586677552    9.20449782179961    0.74758653235384
C          -4.91041975623167   10.17004561102943    1.25958614466589
C          -5.25754927717517   11.26684841555002    0.52734808147136
C          -6.09586518868126   12.36829515593802    1.12374713414843
C          -5.84440905631681   12.48152138465766    2.59044964256691
C          -5.84867850134955   13.60318676251675    3.35301746270747
S          -5.49203916345683   13.25903504274493    5.00258874824776
C          -5.32353243825355   11.58106211966378    4.65208863089550
C          -5.54114656181336   11.31309504402772    3.34025281821136
C          -5.46682555780386    9.99080563040513    2.64870162734862
C          -4.88330721176368   11.40699061639798   -0.85151830237028
S          -4.43092902993354   12.97369372151047   -1.51573767145518
C          -4.79194580612387   10.45885034498896   -1.84310500444115
C          -5.14665185731902    9.04167474218892   -2.03242127316869
O          -5.63812933476749    8.24800469563052   -1.26517482199286
N          -4.83005155802953    8.76710890185219   -3.35696496923593
C          -5.03999043303173    7.47132714076681   -3.96742002996213
C          -4.03078014047094    6.44286711284596   -3.47140778710405
C          -4.34042321893055    9.86686947307346   -4.06244004568973
O          -4.01648867663558    9.84814808132526   -5.22470591443032
C          -4.34689611891821   10.96270481681805   -3.09036888193741
C          -4.08873237227521   12.31359531049870   -3.10763659809491
C          -3.63200551321996   13.09726708188676   -4.19431122990020
C          -3.40663440168069   14.42970195828914   -4.12314415511191
C          -2.94156195894782   15.21884756760035   -5.20434154995865
O          -2.75141703570611   16.55206100174088   -5.02147770522722
C          -2.30753377218201   17.08950852879629   -6.17792193360150
C          -2.20380476203246   16.09082502641942   -7.13480223369459
C          -2.61032773239339   14.88769226846797   -6.51487555036025
O          -2.67197679209915   13.65974594714050   -7.05582601677443
S          -1.68519920202705   16.18757868528208   -8.81362808892861
C          -2.02600313601604   18.49355889784274   -6.25750018167972
C          -2.17664435704545   19.34224615374499   -5.24125411660335
H           1.87048469921096    1.66926127443036   -7.33337299458202
H          -0.32805488239858    0.21154308608081   -7.73078659014450
H          -1.32544791657672   -0.00782689402734   -6.26866067582570
H           1.55486581824701   -1.00701177811133   -6.59199154220388
H           0.10421540961565   -2.01245030380614   -6.68820174030207
H           0.53452843830602   -1.22629866087160   -5.16587020556474
H           1.80073741864896    6.79633075047507   -3.56303420431684
H           3.28859531830164    6.17310597217252   -4.29296723884765
H           2.20261078500916    5.28656744468122   -1.56423497783606
H           3.53901920666639    6.41378670724256   -1.82548928816770
H           3.69505078035129    4.72712530014452   -2.32473214922020
H          -0.70882996310030    3.56385669036123   -2.31629027502679
H          -0.00283121267914    6.54004221827656   -2.59761793847616
H          -3.06183883841382    1.40524145049477    1.04739054085150
H          -4.16521249985595    2.23349251176458    2.18772663033981
H          -1.14261023573527    1.89972756570680    2.55518173721917
H          -2.38394093353749    0.98014632942976    3.41405332091300
H          -2.23176633100698    2.72018260891114    3.68633008702812
H          -4.50392116120285    7.46975523420785    1.88266060117162
H          -3.34583319135593    9.54185706271858   -0.05713391952349
H          -7.15357156335810   12.12691325530293    0.95516638542922
H          -5.89351681513289   13.31513526968721    0.61862971425418
H          -6.03927900784001   14.61441618417394    3.05397441654432
H          -5.07507737439672   10.90010153049082    5.44126083775511
H          -6.47539737860054    9.56843993909191    2.56493242337550
H          -4.85830319552778    9.29355611123721    3.22365078447814
H          -4.94492006165968    7.61767967116284   -5.04595108569174
H          -6.05473772591632    7.14074921547035   -3.72759166089192
H          -3.01566054048809    6.78178015538552   -3.66664279569200
H          -4.18568603498566    5.49616697732971   -3.98095698081974
H          -4.15789074917371    6.28661459133617   -2.40299681514044
H          -3.46234567879511   12.55910851803950   -5.11598186374188
H          -3.57885362130500   14.96475039049152   -3.19793355147817
H          -2.38763622183285   13.69089244571789   -7.97890768284227
H          -1.40977540160422   17.48616096056022   -8.80012974425141
H          -1.67285073129146   18.84506572606101   -7.21825441569380
H          -2.52728934096921   19.00246353278846   -4.28267704793683
H          -1.95310958851260   20.38850185861886   -5.34445062316967
