142
 SCF done       -230.261246568109          0.000735215947
C          -0.51208494403044   -1.29805703338680    0.92290621253112
N          -1.06816523906930   -0.56438847003837   -0.07325700049727
C          -1.36547333667677   -1.02439747197681   -1.40619197376436
C          -0.10991514869134   -1.08815090806282   -2.27204758479199
C          -1.27493986236195    0.77944458557799    0.32766290023156
O          -1.72850275581775    1.62859148502155   -0.41000451629549
C          -0.81922621165046    0.80649152017472    1.69672261269544
C          -0.34039551168018   -0.50121039751862    2.02256110362399
C           0.14364752093808   -0.47445224637443    3.38761566590191
O           0.63378202817139   -1.32319600962176    4.09915252729232
N          -0.07833765170236    0.85273295865822    3.80065241747983
C           0.32001379651515    1.29314132443662    5.11483571550612
C           1.64558421608437    2.05193397818126    5.08635384639736
C          -0.65539568026061    1.62318662020891    2.80868018104398
C          -0.99226447836965    2.98663197651263    2.98973643546667
C          -1.66345763333520    3.71446338124094    2.05295846810576
C          -2.05297923370098    5.07248437748181    2.11058230265923
N          -1.66129022269078    6.07100673898247    2.98792657370775
C          -0.63674974777255    6.03846275404373    4.00390017013665
C           0.75978543150111    5.88090651896607    3.40828744017165
C          -2.27338430564971    7.29853209662600    2.68266981303227
O          -2.06913207917746    8.32270187165362    3.31273569767150
C          -3.12051174760101    7.01730949177139    1.55138880791657
C          -2.96148202549949    5.65549289545478    1.22412622219494
C          -3.82831659371629    5.35718230719000    0.09609266550316
O          -4.07165545577753    4.33551842412976   -0.50150394039383
N          -4.41831433643559    6.60052009699358   -0.21486810344141
C          -5.39282818955385    6.72672242397190   -1.27228608397254
C          -6.81862566892434    6.73695272534386   -0.72762188780797
C          -4.02066065595068    7.59426588440684    0.64394643607611
C          -4.45073285993538    8.93048629185061    0.54554544241930
C          -4.08935102684675    9.88759491634834    1.45296204873673
C          -4.49998399177849   11.22668933358681    1.32400577856243
N          -4.20485711789096   12.21494133352071    2.23768335420926
C          -3.42814179828558   12.06148388600578    3.44536033906674
C          -1.92873648328789   12.02326027976448    3.16405192065393
C          -4.72828175375149   13.45563224620398    1.85812283789256
O          -4.60424428416071   14.47347028259609    2.51627455319635
C          -5.39975392752542   13.19633208080863    0.60181245384100
C          -5.24954953678541   11.82693517946785    0.30291817923577
C          -5.89584485069190   11.57460366570117   -0.96924199982003
O          -6.03091649684112   10.55473943308157   -1.62171922683070
N          -6.38222987596462   12.82329555815115   -1.36820036446146
C          -7.13953295871221   12.98609679087135   -2.58692919770101
C          -8.64101128127407   13.03392802317896   -2.31896270031302
C          -6.10650206115168   13.80706966431670   -0.44344155709905
C          -6.47216875556953   15.15428194278121   -0.60514527129362
C          -6.23015403965464   16.09890153991911    0.35512862505302
C          -6.57509874448250   17.45005715470280    0.17664728650931
N          -6.36979965691161   18.42732216343856    1.12640347454076
C          -5.74961005549510   18.24842313639766    2.41839407146785
C          -4.23032667113666   18.14849087791966    2.31694572148924
C          -6.79710141158573   19.68512713506603    0.68850779238162
O          -6.72004565663697   20.69932881703629    1.35891697449629
C          -7.31099130967524   19.44912347306273   -0.64495262330875
C          -7.16701258814268   18.07491585152204   -0.92940384768931
C          -7.67850790789369   17.83969688463666   -2.26323477902254
O          -7.76922683672284   16.82421997046270   -2.93084382882263
N          -8.10651366459317   19.09802555968382   -2.70058809206570
C          -8.62734207917280   19.29804545767272   -4.03226601022279
C          -7.57046458135559   19.87379936567672   -4.97093130599916
C          -7.89328900357249   20.07563625947088   -1.75381566065745
C          -8.24183918833303   21.42815310981488   -1.93540333750636
C          -8.00573237832185   22.37543971966181   -0.98087010601252
C          -8.37081830702000   23.72693541074119   -1.15475806200202
N          -8.13390407645629   24.70630440836212   -0.21690864408075
C          -7.42640516114567   24.53995313669936    1.03074640234445
C          -5.91494608668216   24.50246003170377    0.82283363061411
C          -8.60861399834531   25.96024443338034   -0.62790808768335
O          -8.50961494876116   26.96972401715232    0.04105944515269
C          -9.19436350360684   25.71344305832755   -1.93017398279060
C          -9.02986891575013   24.33450794111505   -2.22562418395896
C          -9.60927220930143   24.08744469313958   -3.52208946221191
O          -9.70503447481810   23.07885460301786   -4.20038474549469
N         -10.08894641436433   25.34324843888720   -3.93476223287905
C         -10.80214048049447   25.49288808236918   -5.17942277511312
C         -12.31376853918445   25.52734531461749   -4.96556613073349
C          -9.85212815545767   26.31764100010669   -2.99369100748941
C         -10.23133020529231   27.68977904092643   -3.16330131449372
C         -10.00193100441145   28.62513498958816   -2.23815498475682
H          -0.28369534736232   -2.33900818238375    0.78553323448416
H          -2.07269177222476   -0.30641872400225   -1.83035919064187
H          -1.84021590554921   -2.00816505813573   -1.34783593348866
H           0.33996163012501   -0.10132832373713   -2.34776621248962
H          -0.36710080858423   -1.43107088132829   -3.27020918467079
H           0.61910461455116   -1.77254818227426   -1.84322344397471
H           0.43492611888031    0.38467950187633    5.71320619045151
H          -0.47271518156569    1.90430381078936    5.55647333234854
H           2.43072451539806    1.40627007827723    4.70104018376545
H           1.91453646117092    2.36326086327303    6.09214848817925
H           1.58178252967098    2.93278131435613    4.45147000380668
H          -0.71844707453583    3.42370658780672    3.93569314919645
H          -1.98319606460114    3.21777200607014    1.14400954215083
H          -0.85161997916340    5.25566471572485    4.73612730710439
H          -0.70738224693258    7.00494337287089    4.51373207490827
H           0.84163461500731    4.96084237346031    2.83383461551419
H           1.50080398509244    5.87032939917804    4.20347618291898
H           0.97382493043036    6.71666823310566    2.74647646090994
H          -5.25059040966918    5.85707141148339   -1.91955416228530
H          -5.19935508356429    7.63730935416240   -1.84442729142640
H          -7.01482334340465    5.82224606936274   -0.17296805300124
H          -7.52275424697467    6.80497341777408   -1.55165123549021
H          -6.97281022311794    7.58848050214693   -0.06910536389751
H          -5.08034444247806    9.20404829431553   -0.28889482574197
H          -3.47032230760770    9.61439417798475    2.29525892190953
H          -3.73874416901740   11.15251926265225    3.96631698763347
H          -3.66519425321960   12.92993962632605    4.06666864299396
H          -1.66454874556788   11.14041793989890    2.58822876746675
H          -1.38530449162473   11.99405733523518    4.10405586943666
H          -1.62720999163107   12.91090085641568    2.61261701417075
H          -6.90193999464756   12.11899808497501   -3.20939390881300
H          -6.81802516948348   13.89535976144644   -3.10004692280523
H          -8.96106527892412   12.12687180608232   -1.81123533182066
H          -9.17602244865723   13.11616430427676   -3.26052586682498
H          -8.89394407881186   13.89220995191309   -1.70147630730033
H          -6.95556799275853   15.44826194701417   -1.52580307878178
H          -5.75811075243351   15.80405592022031    1.28113239453120
H          -6.15606731375764   17.35514757506851    2.89883340382305
H          -6.02399303460683   19.12845035326104    3.00699391327809
H          -3.93586921035222   17.24951590641531    1.78230016517773
H          -3.80314415804811   18.10827659277473    3.31464927842612
H          -3.83055427743240   19.01739940021623    1.79917316753093
H          -9.49793342128554   19.95685402860484   -3.99187207164597
H          -8.93919165893171   18.31152851212352   -4.38646989117689
H          -7.25345206759234   20.85833985361132   -4.63618622878736
H          -7.98318460393627   19.96575391485146   -5.97126096096217
H          -6.70349512089149   19.21795822965074   -5.00788121615269
H          -8.71544286962823   21.71613118836932   -2.86284888514320
H          -7.52814262956280   22.08777801939098   -0.05525669969063
H          -7.76342634692940   23.62626655242932    1.52589171112022
H          -7.69360550792108   25.40259698966548    1.64737583013531
H          -5.63297611562318   23.65602581517834    0.20146406325904
H          -5.41793539917570   24.40587916136988    1.78362003939833
H          -5.57880590708908   25.41936818797792    0.34402375045610
H         -10.53792133173559   24.62123108009436   -5.78512687141159
H         -10.46034186971567   26.39513278007690   -5.69411822934495
H         -12.64097023115964   24.60605910010060   -4.48987435898682
H         -12.81995638486912   25.62373653723125   -5.92212129429471
H         -12.59893326597023   26.36363603960430   -4.33108802034529
H         -10.71917135638559   27.95107122639709   -4.09235375187103
H          -9.51739647901683   28.38878402302916   -1.30557623954539
H         -10.29622999611109   29.64827611963462   -2.39645158806060
