122
 SCF done       -238.963390689406          0.000931044414
C          -1.63313479335263   -2.18759520372199    7.92951317048423
N          -2.68445636688181   -2.59452460310115    7.18838893959837
C          -2.92903931175496   -3.93668275060420    6.72117571076026
C          -2.04945842353114   -4.27978890488904    5.52187222511980
C          -3.52972039169596   -1.49915382090844    6.84123582196091
O          -4.52361870307048   -1.61619539547130    6.16313211232776
C          -2.89287200847610   -0.36759034637126    7.47598459816671
C          -1.72057225280247   -0.82850894107510    8.12936295545722
C          -1.09220827342774    0.31714429307662    8.76039214636722
O          -0.09538351781576    0.43008565202242    9.43150259574957
N          -1.92903356402890    1.40929723429951    8.41672283705071
C          -1.68772421233341    2.69886159145162    9.02387877213468
C          -2.76063533177943    3.05508328983108   10.04815926081865
C          -3.00814405375736    1.01101394346151    7.66678917234990
C          -4.08102565303433    1.77436135777569    7.14464324318708
C          -4.14259850651466    3.11737353658216    6.94346150032643
C          -5.27784175773626    3.79546040623350    6.42638353337767
C          -6.63047074796633    3.57198968652772    6.66767021264998
N          -7.22521123523248    2.68548335903262    7.58907176785855
O          -6.51286380319973    2.12866871880609    8.40918875484395
O          -8.43446210248577    2.56257117319525    7.53890681537427
C          -7.40370942492619    4.55105029745709    5.96203789294618
C          -6.55277654750894    5.40559210759681    5.32689246431329
C          -5.20715307388319    4.99021616825842    5.57439806735370
C          -4.04900753519135    5.51557118272557    5.02111164861027
C          -2.85846212275571    4.80486138190938    4.73060697775048
C          -2.03573957441843    5.61583370030114    3.99510952278915
C          -2.64135820660910    6.89397510092363    3.83153284556239
N          -1.96460153936645    7.89204074343656    3.10802576388860
O          -0.78192603059782    7.70167788592408    2.88502630060012
O          -2.57715773141786    8.87291547632748    2.71470079522277
C          -3.88367223499944    6.89535690239707    4.49442983354745
C          -4.77125932909835    7.90041426812191    4.89860933972639
C          -4.80284514536647    9.21570371038156    4.48623504102928
C          -5.72443848642115   10.20548259321608    4.84302353459574
S          -5.47932713488282   11.75841138018234    4.08766773235076
C          -6.93294025867344   12.37699017962706    4.77813172724486
C          -7.52789413774363   11.43984797159433    5.65459530253905
C          -6.85072686340124   10.23399346541028    5.70286253064818
C          -7.25002826363305    9.10478064638252    6.60348008502902
C          -8.55128658749264    9.37992597899048    7.36816367071391
C          -9.73784133989946    8.94115504444544    6.51141915936819
F          -9.65097398129909    9.32323818798995    5.22671738594732
F          -9.83048322920908    7.60065441232181    6.48387640004252
F         -10.90829304956111    9.40191632875060    6.96651409127148
C          -8.64905485061187   10.84643151758354    7.78672078600547
C          -8.67755634463169   11.75605479915135    6.56179870258773
C          -7.42380461835401   13.66908510932748    4.47253291910321
C          -6.73052256807394   14.87281672770923    4.34349367576365
N          -5.34685919919199   15.07202356234866    4.33122031945929
O          -4.92838045324313   16.19560668674079    4.52741129939215
O          -4.62802099655037   14.10170131166288    4.10927020313554
C          -7.66651784672328   15.95590157630475    4.30498654267630
C          -8.92962347205613   15.44882885071335    4.36246819239857
C          -8.85070876863740   14.02287877461743    4.40161577018655
C          -9.87039254904431   13.13783847282642    4.09303551178510
C          -9.72815843737144   11.89387118928897    3.41669934110530
C         -10.96960274149893   11.44648473465980    3.06825820361179
C         -11.95794154912338   12.36029392692558    3.55029958200024
N         -13.32410459095352   12.06555829090409    3.40720837177113
O         -14.15199900608533   12.85874046842896    3.83174542365355
O         -13.61380030168198   11.01883834143066    2.85840999277590
C         -11.31862721269688   13.41693441172111    4.21801060174794
C         -11.73805555867218   14.44691967093327    5.07469109397989
C         -12.95883641584540   15.07640401758018    5.15815640115653
C         -13.25685641945275   16.16820063579468    5.99108921704373
C         -12.42997257128230   17.02337148816862    6.74134548952684
N         -11.09988061890745   16.90625768390852    7.18823213331650
O         -10.52266926606222   17.93975563282030    7.47482486815514
O         -10.59072074648804   15.79833988916520    7.30323275771628
C         -13.14197566061125   18.23434006321449    7.02314336490016
C         -14.40199630229960   18.14656748036214    6.52641031567956
C         -14.58666664431000   16.83879949873788    5.96366816728074
C         -15.78862028898381   16.26643522142323    5.62339367861120
C         -16.04542024536033   14.87865756326697    5.29795819290467
C         -17.30932556799591   14.75585190518030    4.84372976927084
C         -17.93379845076980   16.06717788939988    4.88138872981216
N         -19.27055541046149   16.30312354570779    4.49660777131339
O         -19.91524521285508   15.35215583849748    4.09873485712398
O         -19.69871909647764   17.44110134212351    4.58536139776099
C         -17.07032554954505   16.98511173747173    5.41613819968302
C         -17.41592693148810   18.37510996018217    5.65966911932343
C         -17.47457685792283   18.92952843574936    6.86446124299745
H          -0.89094932988441   -2.88301895587487    8.27689311167628
H          -3.98290117029137   -3.97940448301748    6.43442206470056
H          -2.74893499248722   -4.63801945097450    7.54023072642321
H          -2.24796541574085   -3.59287907003768    4.70302586160042
H          -2.26421974191024   -5.29023974392543    5.18686118551278
H          -0.99594708168111   -4.21534741450943    5.78499512533935
H          -1.59838950361571    3.46941503859324    8.25388142072681
H          -0.71736636825125    2.60634815140263    9.52158534330444
H          -3.75045661152601    3.06953247961530    9.59862618278661
H          -2.55070353301799    4.03336192899860   10.47127212980083
H          -2.76201004704866    2.32349187785000   10.85207443421860
H          -4.90803030257159    1.15831317884191    6.81777792577333
H          -3.27391648171912    3.73579194980173    7.11536085305653
H          -8.47680383730982    4.58056907304240    5.96848578975861
H          -6.84039796881527    6.18196393645043    4.64453092204217
H          -2.69479790260897    3.76333359569096    4.92764899457732
H          -1.08209964246863    5.35912493750983    3.57261087987051
H          -5.49672504973888    7.57199502861976    5.62426648435252
H          -4.06307371071363    9.53464885453311    3.76247751457583
H          -6.44517672518481    8.92758335657391    7.32222865225153
H          -7.38167371931091    8.19145675294798    6.01810239403084
H          -8.59087224068589    8.74119901627703    8.25680327684682
H          -7.78070488390847   11.07973491286927    8.40467944050792
H          -9.54638870840086   11.00913918865247    8.38398550924984
H          -8.63027723134756   12.80065889926268    6.87403595300654
H          -9.62480842643217   11.62010269309130    6.03850353285591
H          -7.37567963992478   16.98590813144108    4.22365716534749
H          -9.83570202248915   16.01147360185189    4.25301273264609
H          -8.79526275206703   11.44189833585333    3.14428781349526
H         -11.20892950800471   10.55383783565340    2.52218396351430
H         -10.96203674975936   14.77058482046455    5.75466384774765
H         -13.73646240995631   14.77674178303788    4.47423274347652
H         -12.70444617699518   19.06058990106369    7.55162201949283
H         -15.16219457851624   18.89617076775885    6.60029825169094
H         -15.35607412087842   14.07039950677594    5.42432176024071
H         -17.81392579393226   13.86753096280925    4.51687325883909
H         -17.74588701475767   18.93077370777679    4.79046653503486
H         -17.23789294211651   18.37531388850339    7.75859898121594
H         -17.80142949175816   19.94570340022206    6.99732874209438
