104
 SCF done       -177.712064092313          0.000891319523
C           5.12902906023129    4.62802953279072    1.36129193811466
N           4.83134645231649    4.57589470497031    0.03794325354810
C           5.68009199909004    4.05206170053651   -1.00221234939574
C           5.69793189764350    2.52580135233164   -0.99519313256276
C           3.52063891049749    5.05053686261993   -0.21706235887136
O           3.05018503203550    5.13359154604732   -1.33228180177049
C           3.01755504219405    5.39532020144632    1.09142665000966
C           4.05546848664490    5.13208157326679    2.04224412210783
C           3.57456241327094    5.52755623479388    3.34993997083086
O           4.07525019262103    5.49509242459344    4.45201790051378
N           2.27405239421987    6.01002905630512    3.10170692690071
C           1.46025425713747    6.53263148620456    4.17107724959255
C           1.50207954217811    8.05862012288156    4.22440090487479
C           1.93194700082934    5.93101579520837    1.76734922978910
C           0.67212477002606    6.33947920358828    1.25647736209558
C           0.27381897587062    6.09372240857550   -0.01806814764774
C          -0.97348488092963    6.53395796030067   -0.52723484446033
O          -1.74935911150254    7.38772032254483    0.17493906572111
C          -2.84723445979583    7.67372899704732   -0.56909500584646
C          -2.77731753739360    6.99688409751562   -1.77627084968449
C          -1.58117964156422    6.25846015532897   -1.75840388509739
C          -1.08817276780357    5.30232221596908   -2.77038114336720
O          -0.33553424677828    4.40260684812569   -2.52346461404911
O          -1.57170867918322    5.48424874146196   -4.01420265608885
C          -3.85949793248594    8.54555339875922   -0.09962228960993
C          -3.84328967070291    9.14978781836379    1.11774383485392
C          -4.87743723623268   10.01675621758743    1.54174662329472
N          -4.91179928308099   10.63082212057225    2.77894508165442
C          -3.96879969334532   10.44906617563761    3.85546663622647
C          -4.19522559688898    9.13148694970605    4.59297667373851
C          -6.03853314730682   11.44037821304860    2.92954721213303
O          -6.27737041637390   12.09028074647780    3.94110027020027
C          -6.74698305207802   11.31643116811323    1.68240538784880
C          -6.01021540274951   10.43764447795820    0.84807174682495
C          -6.70108179289580   10.34748915217703   -0.41759518079319
O          -6.46813009960090    9.71667673224636   -1.43275595027380
N          -7.81475467807235   11.18953079714759   -0.27024198299514
C          -8.74882604699423   11.39762357491663   -1.34920059216128
C          -8.46127149819047   12.69241666113516   -2.10586322486509
C          -7.85919633104897   11.77713932376429    0.97336214314204
C          -8.85549649664089   12.67901274132448    1.40825702821697
C          -8.85753592277782   13.11934915226180    2.69850040708842
C          -9.75468895557428   14.05633710491685    3.24604025279163
O         -10.71642480024689   14.60464154883481    2.46304181046460
C         -11.44880621822390   15.45667198364819    3.21608205425507
C         -10.95897759070335   15.45932037105448    4.51096372576493
C          -9.86892327011381   14.57268690899228    4.54602413134167
C          -9.13440029048919   14.34194254684661    5.81662615317682
O          -9.59406696742747   14.75714236630128    6.85105514296079
O          -7.97048789152518   13.69661674714516    5.82679279923427
C         -12.51439100327931   16.16513497025391    2.59949478862901
C         -13.33387606652096   17.01968966337853    3.25662849003142
C         -14.39150450306556   17.74590858898046    2.65424620358013
S         -14.71369123345675   17.60511379015636    0.94719376088884
C         -16.03356415343332   18.68932965431728    1.07884580395585
C         -16.25092521048519   19.13528252716381    2.34665293035692
C         -17.32274576112181   20.12568923240024    2.66339783193830
C         -15.30850614231208   18.59584807644678    3.27406221739689
C         -15.24399426022537   18.88760186363376    4.68529663983196
C         -16.27439843566608   19.19865797785759    5.48981476004072
C         -16.11201897883437   19.47075146895672    6.89377862272265
C         -17.12706950595771   19.74099623650126    7.71247315913276
H           6.08886395387213    4.31169330257624    1.72656371045074
H           6.69244433941753    4.44701717814065   -0.87351765639677
H           5.26860377542513    4.41502510086463   -1.94805295177016
H           6.07669954961795    2.14950929243907   -0.04706826759967
H           6.33470998890256    2.16053318141457   -1.79595860092037
H           4.69227579751171    2.14135698407230   -1.14657632896495
H           1.87943646246438    6.12604362210672    5.09602681874783
H           0.43350112753703    6.17221600963212    4.06090354217938
H           2.52504044234166    8.39333683627610    4.37726236999067
H           0.89282462768755    8.41626703878254    5.05016608493777
H           1.13198055674889    8.49360653081715    3.29845364913664
H          -0.00217626991151    6.85612842845986    1.92490928010845
H           0.89557140751508    5.53550182126195   -0.70378486707743
H          -3.53415124285969    7.02892728373957   -2.53545088778857
H          -2.15319061014929    6.25319311309727   -4.07633407888591
H          -4.68246315721110    8.71813384839875   -0.77884981303459
H          -3.01563158555468    8.96748789789741    1.78771520843454
H          -4.12816181558140   11.28492435873722    4.54242706384235
H          -2.94988901668153   10.50574181745139    3.46190688927303
H          -5.19630380135439    9.11197503756241    5.01649660557941
H          -3.47540808249124    9.03286110805024    5.40087782597983
H          -4.08811751764488    8.28389693981326    3.91947022713281
H          -9.76774833948600   11.39652858539906   -0.95244916968787
H          -8.63026108798357   10.54514230584314   -2.02404515933962
H          -8.52509847928740   13.55329771265485   -1.44400507213500
H          -9.17960444282122   12.81565869202055   -2.91166137677579
H          -7.46185209378243   12.65761105650593   -2.53250159108580
H          -9.60891499815322   13.02042992986846    0.71503822273891
H          -8.10922370971102   12.72081590221629    3.36311006774057
H         -11.31815631203512   16.02128940899137    5.34734030419707
H          -7.60185047200768   13.37055143259096    4.99015388514568
H         -12.65241926426551   15.98498433048307    1.54186358555675
H         -13.19145836232854   17.16404549474290    4.31733493560049
H         -16.58247032947581   18.95206868773682    0.19556776566730
H         -17.61713968277399   20.65449290302667    1.75929037487531
H         -16.97090433989786   20.84641253794134    3.39901846490493
H         -18.20573262046119   19.62561314472651    3.06190517218132
H         -14.25881719908245   18.82075406994850    5.13046799133221
H         -17.28651566533581   19.22045359496607    5.11613973896087
H         -15.09961800410551   19.44543131256458    7.27651701674017
H         -18.14482794724212   19.77027236608492    7.35854743060716
H         -16.97787514521869   19.93921720712728    8.75953270170155
