107
 SCF done       -205.451075388395          0.002779796841
C          -0.93194455107602    2.16894288269264   -4.17607586642301
N          -2.14960490712336    2.73766238219210   -3.96144847353106
C          -3.29954464838938    2.56017886266121   -4.81054567051331
C          -3.95227960407273    1.19793800778540   -4.59036067853754
C          -2.17158273671616    3.47254558348122   -2.75471363135798
O          -3.15774011173256    4.07242155906653   -2.35894720613374
C          -0.83808873940912    3.31837382018326   -2.23173102289935
C          -0.10161258427773    2.50176603968292   -3.14588264657266
C           1.24181485019585    2.36139529013408   -2.62707716086385
O           2.21697240863936    1.77875934129947   -3.04160171893434
N           1.23384819990320    3.10958857904061   -1.42714906451633
C           2.43369794319394    3.14306041501055   -0.62379135133708
C           2.36514758688802    2.16989096764424    0.55104748023896
C           0.00264027851280    3.67676104040604   -1.18194489917346
C          -0.40752667626191    4.49951901468226   -0.09718230191932
C           0.30080224879092    4.90313704150027    0.98588787241733
C          -0.21411348202192    5.73312175272377    2.01088023019764
S          -1.84257101611440    6.36447973293655    2.05142013458606
C          -1.57129565870812    7.20149214204142    3.56702467805266
C          -0.27570829677492    6.98090421764163    3.99691657225404
C           0.48110480528091    6.16788070602890    3.12625186833521
C           1.84113447928360    5.98281406019571    3.62853137818040
O           2.73344185833374    5.33776209193955    3.13023100698678
C           1.91335697731562    6.77682406732908    4.92541022605066
C           0.52840483692168    7.37989994881208    5.15556319332595
O           0.19104331136130    8.03395879866469    6.10865438577901
C          -2.58816833790435    7.96603399624022    4.20086091667702
C          -3.79585588701169    8.14533360363987    3.62588058254320
C          -4.92367143813966    8.85445204449019    4.15107430433952
C          -4.94007039693612    9.70970279469991    5.24115928485315
C          -3.90049026099121   10.09306901062050    6.08478019125727
N          -3.07711599760492   10.44359922536724    6.80611829004615
S          -6.51197107158219   10.41757773101807    5.50001051069110
C          -7.15338429506186    9.56696731746722    4.13246133270672
O          -8.43648871715315    9.60552343991052    3.78936701984936
C          -9.21804320909506   10.64211133751650    4.34222622837545
C          -6.20290385432615    8.78800246927292    3.51516623477982
C          -6.48382284734125    8.00986537338395    2.32576884364450
S          -6.19461130371586    6.30499128824842    2.30518047860908
C          -6.95888032310205    8.46045351938899    1.11493094729829
C          -7.23658689474449    9.88370506441960    0.83460423300419
O          -7.11907139181348   10.77707451400050    1.65496644595163
C          -7.65003799092859   10.10459988114217   -0.54111681312051
C          -7.94248028680174   11.28202667043754   -1.19341465504255
N          -8.27008812208665   10.99731835162890   -2.47668986213321
C          -8.67930402432266   11.96375740558201   -3.46521559783769
C         -10.19568382075981   12.14408836739991   -3.46473583837708
C          -8.21496843151422    9.66027635772606   -2.67133983153047
C          -7.82666666904642    9.05900032922374   -1.49171049642947
C          -7.59327614742070    7.65485266647904   -1.21654280531368
O          -7.81306555758434    6.77070046341228   -2.03286624005974
C          -7.05231241127854    7.42118444963544    0.13671617486271
C          -6.64451792474530    6.19390572501675    0.63096661506558
C          -6.54353068003726    4.90511811699950    0.01629727975809
C          -6.17847941160724    4.61021371485736   -1.24784036834460
C          -6.50146142360373    3.27423301467388   -1.82593831273005
O          -6.73436423056862    2.25375185497311   -1.22548208704265
C          -6.53701108548059    3.50330557708146   -3.28498664557465
C          -6.97062892595062    2.66492829506654   -4.27128942432189
C          -6.93702302624726    3.10766134181973   -5.61245952926394
C          -6.46156981905621    4.41939767824041   -5.90489011810829
C          -6.43082222362802    4.85144820241227   -7.24647359478061
C          -6.84825311377803    4.02223977715934   -8.24886795193803
C          -7.31737803775895    2.72550106537126   -7.95846529796402
C          -7.36220971582409    2.27740587467461   -6.66844748321868
F          -7.71956201604185    1.93260024750513   -8.96187462686239
F          -6.81395940730452    4.43589707608737   -9.52357765519922
C          -6.02625872650677    5.26827655748337   -4.86191721349167
C          -6.05838798906983    4.81417976500835   -3.57033377736166
C          -5.67028728518145    5.44869295443207   -2.31879561424269
C          -4.80794231297678    6.49727849344443   -2.17961750174416
C          -4.32006492523009    6.93985929176444   -0.93558023559754
N          -3.88149092579507    7.32923622858999    0.05183493927040
C          -4.28876665331041    7.22511037923142   -3.26835355905894
N          -3.86924979561505    7.86042052960899   -4.12823239722387
H          -0.74529112485417    1.57677586300778   -5.05257467901843
H          -2.98938861769874    2.66749917238084   -5.85428416955460
H          -4.00136505554150    3.36043699133244   -4.56576337355635
H          -3.22908239918564    0.40092923907798   -4.74897480277669
H          -4.77562915155005    1.06629468844293   -5.28646817935789
H          -4.33354071325160    1.12401867045189   -3.57533607985451
H           2.63198207101271    4.16401655306542   -0.29169765222602
H           3.24271225676539    2.83676657348875   -1.29436455615524
H           1.48534093460011    2.35028842246506    1.16428500161545
H           3.25022756109083    2.28281072796585    1.17071334222644
H           2.32329931286380    1.14809245284573    0.18144662547075
H          -1.43699713251564    4.82979905741100   -0.18622017506445
H           1.32632023121480    4.61177165865779    1.15390860715404
H           2.66523872420141    7.56614979672509    4.85125745627032
H           2.21077882961959    6.14196877839973    5.76272026295885
H          -2.33359892385981    8.38259827742607    5.16592791224870
H          -3.95175439947485    7.70557540124962    2.64812783768554
H         -10.21623316774306   10.52200401869163    3.92649987931161
H          -8.81305359820386   11.61819534818939    4.06206836646494
H          -9.25766215114887   10.56223926895507    5.43384071664461
H          -7.92203725491880   12.28669412675696   -0.82025489536853
H          -8.34430531447252   11.61950574854880   -4.44688803384116
H          -8.18914910245844   12.91470985321889   -3.24257023627983
H         -10.69014008355663   11.20133106356782   -3.68655458010549
H         -10.48157354218601   12.87339382866993   -4.21729130750469
H         -10.53615909755514   12.49325835715963   -2.49298703585891
H          -8.43484648810329    9.21132636866317   -3.61980837578321
H          -6.81457479385456    4.06099510355046    0.64257393418781
H          -7.33675883160904    1.67799281145891   -4.03294218705304
H          -6.07236314840108    5.83988020590502   -7.48737076202692
H          -7.72700720583062    1.28315508844241   -6.46241346928923
H          -5.68756604506370    6.26261868371986   -5.10493805372883
