113
 SCF done       -201.466566861154          0.000581861970
C          -1.23640637320840    1.68422908373583    3.29105796165894
N          -1.03422750002368    1.17132246141636    2.04837593993314
C          -0.73735645168867   -0.20530692962491    1.73762266194816
C           0.47355831975634   -0.72071707541182    2.50654805725826
C          -1.14189713134625    2.17098850169256    1.06381729654424
O          -0.97833224919065    1.95976726976972   -0.13101252759122
C          -1.44802871596912    3.36710715595333    1.79611797999828
C          -1.48534667052894    3.02453531225766    3.18275447095602
C          -1.78706219232905    4.22727240035432    3.93215430727797
O          -1.92500794202003    4.44190776143018    5.11487198040263
N          -1.92902593914449    5.21960381418642    2.94055631492611
C          -2.17763088766182    6.59390512970573    3.29916017273956
C          -0.91168521213839    7.44183509555079    3.20396146018011
C          -1.73411767882249    4.72506009846261    1.67102848846414
C          -1.89210579669637    5.50864666471427    0.50654194221928
C          -1.70980439893780    5.02856167515437   -0.75527894523146
C          -1.97843062964468    5.77748262308261   -1.91947057542981
S          -2.81588248255632    7.30461129671529   -1.79725918935022
C          -2.95844393981221    7.45919577352112   -3.47553686095896
C          -2.37718949141595    6.40648912473681   -4.15470975363576
C          -1.77211965886780    5.45105931167110   -3.27180979020451
C          -1.04559267820272    4.36835576083572   -3.82824571761579
C          -1.07879952631876    4.18550666127973   -5.20685377342109
C          -1.73213186911180    5.10592567928759   -6.05441913298931
C          -2.34199171111597    6.21435490379586   -5.55192381824018
O          -0.41561055682841    3.12798129458867   -5.72540438858792
C          -0.18852730488229    3.49727703424910   -3.03771796802712
S          -0.31811689857293    1.78365297458288   -3.15611655267582
C           0.96489359854879    1.52832642030784   -2.01485137611563
C           1.49707860627386    2.74623603215104   -1.61352321009117
C           0.84813335937860    3.85222938346996   -2.20600716446154
C           1.40205680938308    5.22665820818834   -1.97044124385978
N           1.04715806350708    6.17633125254482   -3.04440874416219
O           0.51517356879008    7.20937611352148   -2.71457819294641
O           1.34768664698991    5.88138622626022   -4.17543469525685
C           2.93190845670850    5.09762215185829   -1.98457849950100
C           3.40166616329153    4.25240595808346   -0.80806705836892
C           2.58163633606038    2.96921646082719   -0.60267165428132
N           1.85145593502975    3.06149697355873    0.70060198913417
O           1.29523209977385    4.09977775513578    0.95901915148492
O           1.84795297732775    2.07779958712099    1.40094746498821
C           1.26111940162051    0.16902550473708   -1.71273392742895
C           1.98029014943824   -0.31858362813304   -0.67558705942738
C           2.20607201616528   -1.70788426470834   -0.44143685431470
C           1.45373776062810   -2.77611430732700   -0.83914912806340
C           1.96274388128735   -3.95891699155529   -0.19027213322564
C           1.44989049193489   -5.24819778715219   -0.37850720353335
N           1.02287218937514   -6.30309385454238   -0.53244312480029
C           3.01189429132827   -3.61654268086986    0.63315489114870
C           3.25272388159606   -2.22032180051425    0.47665156163766
C           4.33391280728667   -1.49816601636352    0.92892320694824
C           5.25213912003608   -1.82900347671154    2.03777324248156
C           6.24270888349814   -0.88136799889127    2.04622923468652
C           6.00357370347108    0.04479105036218    0.97247056102249
C           4.84773662274942   -0.31460914236558    0.31763436739602
C           6.78946125728195    1.15805203278936    0.65335731416702
N           7.39156864102933    2.09747473835994    0.38024334206720
C           5.04122983224289   -2.86452805718400    2.99362553400984
C           6.01341275197012   -3.37302481745068    3.78770254561201
C           5.78110692850678   -4.35195690113207    4.80177749930139
C           4.62886222108688   -4.47748314448718    5.52336153300031
C           4.84704324112655   -5.42496491132711    6.59271738308071
C           3.89315054909109   -5.74937361314345    7.56747438445404
N           3.10386890794188   -6.01189510942166    8.35846942555111
C           6.12326917027734   -5.90844059111887    6.51193983242252
C           6.75010856893694   -5.34013115933296    5.34583967549360
C           7.92843124105081   -5.74498941195606    4.77888263710940
C           8.91899642101675   -6.69569308603490    5.33897713014981
C          10.06952798347896   -6.54195002443215    4.64021057732025
C           9.83692188714278   -5.61560485053519    3.54189754301650
C           8.55006011931430   -5.17327287471361    3.60512758171149
C          10.79487391829849   -5.27686032833081    2.57807913889540
N          11.58761726627593   -5.00141102075256    1.79452107820065
C           8.75805654347637   -7.69871729288942    6.37675298712192
C           7.73494766056388   -8.54148895231878    6.46180009985698
H          -1.19524193202242    1.06201300482473    4.16460843202345
H          -0.54465352286252   -0.23464988692670    0.66130690687106
H          -1.61530272268189   -0.82583571570627    1.95341056242920
H           1.30960410246784   -0.03953537363367    2.37574612441428
H           0.75064683032115   -1.70334828872403    2.13425927930938
H           0.25510072040633   -0.80398201554423    3.56813682491584
H          -2.52985770269885    6.57378127505045    4.33456541526425
H          -2.97027564439910    7.00410231939041    2.66627890922292
H          -0.15072535378185    7.04414489208406    3.87052586479834
H          -1.12991873398828    8.46563347324015    3.49483842778264
H          -0.51708608963297    7.43942512796919    2.19049486862647
H          -2.19528277498202    6.53912300058262    0.63141910857354
H          -1.38191231641500    4.00638380042926   -0.88151744642674
H          -3.45896067112146    8.30648952121001   -3.90046126939589
H          -1.69951655556290    4.93378905651407   -7.12151300171868
H          -2.79758761761206    6.94641246696840   -6.19941671834676
H          -0.44373225575758    3.15620580834326   -6.68958729118417
H           1.04373597747841    5.65196607065369   -1.02571922952593
H           3.39561941249572    6.08354959189407   -1.92370443828647
H           3.22403854764193    4.63779484651843   -2.93144744087302
H           3.33185833504052    4.85615242220280    0.09963252471066
H           4.44974871934716    3.98969849357084   -0.95241441082509
H           3.23082635204920    2.09622988320790   -0.52834367690969
H           0.82344571286988   -0.53764790113066   -2.40660158868854
H           2.37742646795211    0.34175242250618    0.07680836505261
H           0.58997562207582   -2.76680756150868   -1.47619553228227
H           3.62231091458481   -4.30692906900518    1.18229766426494
H           7.05079354144716   -0.79077056356334    2.74732895538417
H           4.48208571852369    0.12673930739503   -0.58944982533322
H           4.04270532519436   -3.27167756057478    3.06190357783955
H           7.02122091372376   -2.99918835429350    3.68308430865738
H           3.72447382624640   -3.91169116915589    5.40057753720786
H           6.57723792100093   -6.60304165897272    7.18899723301320
H          10.99804344047553   -7.05654936293396    4.80365552133707
H           8.07997397346165   -4.52135568960707    2.89749701982114
H           9.60558202201505   -7.81110761959345    7.04204566368002
H           6.90452591552567   -8.50289284302792    5.77562232506774
H           7.70057420700355   -9.31193476054361    7.21270878007655
