85
 SCF done       -148.628286354261          0.000314609052
C          -2.67755324889120   -2.24370792388454   -0.37584005563563
N          -3.65770882569411   -1.63128124556896    0.33503314507118
C          -4.60055325572080   -2.28411767679575    1.20838091261053
C          -5.69282810083274   -3.00000581777865    0.41836492431609
C          -3.69929268898164   -0.23750622557094    0.06858802128654
O          -4.48961232036204    0.51655066679505    0.59131492207140
C          -2.63375998727446   -0.04264134912830   -0.88879597858140
C          -2.02284872588728   -1.31223337234701   -1.13355419680575
C          -0.94745791267604   -1.10463387271015   -2.07775853128953
O          -0.16357552300147   -1.86298448730246   -2.60218051114966
N          -0.95662899905139    0.29066396926852   -2.31901964446246
C          -0.08623822777226    0.82944286879367   -3.33740610897654
C          -0.85745645432541    1.31679188510870   -4.56036461601708
C          -1.96018479443248    0.92484021358363   -1.61581974099497
C          -2.28407565540739    2.31363079334828   -1.56748023547796
C          -1.51060800253439    3.36523136313438   -1.91568122205949
C          -1.95905804675915    4.71201198495624   -1.79910599307649
S          -0.85446011524229    6.06736563164332   -2.02583877174919
C          -2.26002856130704    7.08611132871771   -1.71994698812196
N          -3.33756345213878    6.38935199472515   -1.50357636107235
N          -3.17463913656025    5.09909962710164   -1.54118290388457
C          -2.21505415480803    8.50848091115542   -1.70817617692082
C          -1.07394050589930    9.21849285251583   -1.79284249077558
C          -0.99582401517915   10.63867958192392   -1.76682951048008
S          -2.38580540878849   11.72038649784469   -1.79660305024382
C          -1.20296986961740   13.02225398642086   -1.72761802637546
N           0.02222266644015   12.58020128149115   -1.69046959419446
N           0.13407348739844   11.28485106593056   -1.71784795837697
C          -1.57473210817020   14.39727615939370   -1.72215133359845
C          -0.66736389686962   15.37504161781697   -1.52121302817108
C          -0.99972809427279   16.75894907439328   -1.53878334749100
S           0.17261181472303   17.99409536956263   -1.09338267604061
C          -1.11075975250284   19.14615870461106   -1.44595683975782
N          -2.20953788513491   18.56178276376678   -1.83879865573854
N          -2.15152743954810   17.26278619000675   -1.88191275731943
C          -0.97419532675791   20.55688166619319   -1.32779812309576
C           0.10520393107919   21.14294564959212   -0.76309283872133
C           0.38400679813891   22.52205779896254   -0.55218272792771
N          -0.19376240021779   23.63294858700023   -1.12130191174245
C          -1.22246954663785   23.69509274130966   -2.13100119871769
C          -2.61769836587324   23.77762444309753   -1.51504890130768
C           0.37868668203223   24.83122953944715   -0.63209298142227
O           0.03652296519151   25.93236109964397   -1.00647179813088
C           1.37595850384101   24.38924667009596    0.31457612255211
C           1.36418823861698   22.97199826152857    0.32393090707239
C           2.34902263446448   22.53049514543475    1.28110214075945
O           2.69702954467148   21.42861247040407    1.64880386405390
N           2.90366852639853   23.73102921899722    1.79108691212686
C           3.94759070246597   23.65749817809183    2.78341919470424
C           5.33596062045648   23.76152211661147    2.15539238795525
C           2.33190319677515   24.83899810536589    1.21496006555638
C           2.58371652590087   26.23452111256025    1.44851468850635
C           3.52321269400527   26.82803225637760    2.18617817213974
H          -2.50586091548078   -3.30082716725541   -0.28606429718241
H          -5.04222738815037   -1.50048728269216    1.82956853818225
H          -4.06548295663107   -2.99221240435897    1.84803367668948
H          -6.24022295449221   -2.28653380118063   -0.19248668929965
H          -6.38832378157370   -3.47970079604271    1.10106115795389
H          -5.26200916782231   -3.75794858391635   -0.23229565616319
H           0.56579221986535   -0.00261069837321   -3.62287997711473
H           0.54169799260904    1.62241797980244   -2.92247901831711
H          -1.43957333047122    0.50011559478975   -4.98050683781689
H          -0.16004879810868    1.66919477797507   -5.31539984973023
H          -1.53501870563705    2.12774092017364   -4.30375562082979
H          -3.25727173982690    2.52145317152461   -1.14112348602112
H          -0.49936768303462    3.24754742158343   -2.27120109010683
H          -3.17443973773239    8.99680743992547   -1.60298473324949
H          -0.11568477786330    8.72088800270054   -1.86746202078765
H          -2.61401689493324   14.64213271706871   -1.88102620911485
H           0.36412644217051   15.11512588270476   -1.33399259560273
H          -1.82627409543163   21.11015531345468   -1.68908010336965
H           0.87538913532887   20.50158391509203   -0.34799958204534
H          -1.12579431098418   22.83534093267582   -2.79726730340748
H          -1.03483765572677   24.60917005659146   -2.70341846682052
H          -2.80697863825833   22.93781393780548   -0.84989077787309
H          -3.36828353247033   23.78177260146475   -2.30063988144774
H          -2.70815352162354   24.69697796599958   -0.94199702450559
H           3.84278442914317   22.67566188632305    3.25603787057585
H           3.78657759396980   24.42844990860744    3.54004021315500
H           5.49452698205842   22.92517476186853    1.47905856569389
H           6.09598997879185   23.72873524630203    2.93143517459963
H           5.44470156511780   24.68522391151514    1.59126872724651
H           1.88108989316123   26.85470936001927    0.90475492964445
H           4.28159641506447   26.30475482516255    2.73854876201115
H           3.55998921158616   27.90256072905389    2.24469501013325
