82
 SCF done       -145.729970059322          0.000810813961
C           3.86806179201574    5.63515682230475    6.75808989491084
N           3.94265373954707    6.21388631373721    5.52820673350989
C           5.14417108715115    6.70052514565353    4.89874924125714
C           5.57842426199868    8.04202828685892    5.48382448838620
C           2.66488228266116    6.35815808411272    4.94709763359816
O           2.48159473093544    6.84582238039521    3.84654186803734
C           1.76955450927067    5.80329795755627    5.93065595666007
C           2.56235505757906    5.36112430652419    7.04322093961358
C           1.66517073168588    4.80458375502988    8.03346182488986
O           1.84970955420329    4.31410903899975    9.12471752482045
N           0.38526373248764    4.95528429693653    7.45618569117012
C          -0.79288217521935    4.45836738304942    8.12318977002177
C          -1.25531679731776    3.12432200087420    7.54138556513518
C           0.44235711394817    5.54154214684528    6.21311071095136
C          -0.71859498025509    5.82557194716732    5.42354327727309
C          -0.64375284346074    6.37106820089567    4.20179876235998
C          -1.83372322566312    6.68424017716836    3.37873462243738
C          -1.90554995161994    6.15068214186207    1.94228353268648
O          -1.83422827106496    5.06538321695230    1.46229228383284
C          -1.96491352315689    8.09082110058698    2.78151312217467
O          -1.94895135491692    9.18716321297385    3.24042503971158
C          -2.14155249164752    7.54706973611302    1.36260871938602
C          -3.52951089003836    7.75591862613310    0.76881858422379
C          -4.65783341964895    6.89622437431934    1.32630320158474
O          -4.89793920478916    6.47737472691345    2.41470086366830
C          -3.88109295318641    7.16140638379719   -0.59747541882903
O          -3.30328813760546    7.07935287859438   -1.63097967022092
C          -5.21911419519258    6.62572361514263   -0.07068904145080
C          -6.37764734084486    7.56183111055515   -0.38933326036816
C          -7.66519364735993    7.61650448722580    0.40032894522373
O          -7.98586714386358    7.43105392206650    1.52815830906889
C          -7.20339806080703    7.52209050423266   -1.64890984938416
O          -7.03022518208699    7.21793724175656   -2.78347267657462
C          -8.47540252501377    7.95470071503648   -0.87268468226220
C          -8.83085947659846    9.37944709341942   -1.01895042777820
N         -10.06389561860189    9.80205759997451   -1.41907925984515
C         -11.17252480657368    8.98229379476628   -1.84428135346465
C         -10.96608223438587    8.44343824668834   -3.25797393863003
C         -10.14700891947423   11.21867685360896   -1.45536370858692
O         -11.15563530671356   11.80858775680759   -1.77650044130697
C          -8.84069525480390   11.65797670473204   -1.03740203238243
C          -8.04594254343523   10.49140158590736   -0.77899244688737
C          -6.74169817225567   10.94899357217388   -0.37654265262025
O          -5.71525287348664   10.34124768643027   -0.07522050843519
N          -6.81848181347770   12.33595826204856   -0.40767002853878
C          -5.69631585935068   13.15624267344951   -0.01470561046225
C          -5.84199531256694   13.66739064041292    1.41599770120003
C          -8.06818845006058   12.77699486352553   -0.79595443907560
C          -8.40981190056081   14.16608222716558   -0.91491321246799
C          -9.62430519743278   14.58596390776465   -1.27407210921819
H           4.75467936237656    5.45401197786266    7.33726030274641
H           4.91436110121458    6.81448474091317    3.83599021399497
H           5.93768571822904    5.95692674205975    5.01795364789242
H           4.79387681706264    8.78123583268594    5.34229873396726
H           6.47909095362585    8.38924303597968    4.98543273388613
H           5.78089346903031    7.94881618351651    6.54863105868629
H          -1.59036084073211    5.20510488684233    8.06978880767254
H          -0.50913730287247    4.32244688190939    9.17076105473212
H          -1.49382028656494    3.21961627666080    6.48432868529075
H          -2.13882142955385    2.77789823082092    8.07055377432285
H          -0.46987051505342    2.38079202523619    7.65181703225017
H          -1.68249227247264    5.58956309989830    5.85292752667014
H           0.31797880996202    6.60768652483711    3.76721538879805
H          -2.75738080643381    6.42007215441101    3.90713303755397
H          -1.38055935732028    7.87579306090098    0.65011148377705
H          -3.78890888272564    8.82083758717547    0.79281590795194
H          -5.46680420687562    5.59017556235111   -0.30950667868958
H          -5.99983222677514    8.61432428388663   -0.32579496666817
H          -9.33363127355673    7.30282403274019   -1.03570217808203
H         -12.05024485646673    9.63425426879945   -1.82334692898933
H         -11.32727275952158    8.16840041800645   -1.12968403486302
H         -10.88805537505642    9.26942915384467   -3.96042680846120
H         -11.81364760638743    7.82614657459457   -3.54206874426721
H         -10.05890427189891    7.84727726563127   -3.32794582664076
H          -5.58850465322494   13.98565049827021   -0.71836259497700
H          -4.81128402889354   12.51850351000707   -0.08822584312135
H          -6.73981831438324   14.27155820313754    1.52553327916671
H          -4.97806611657613   14.27100000479301    1.67931359293425
H          -5.90271188500614   12.82966182117305    2.10635690685600
H          -7.62814361185684   14.88094938184525   -0.69995211180748
H         -10.42060526073643   13.89445081705576   -1.49178097843667
H          -9.84751462950713   15.63557525491671   -1.35601351315158
