114
 SCF done       -207.647920386602          0.000954583789
C          -3.76308401857148   -2.19447530566688    4.48067710240604
N          -4.63303551282558   -1.28404640812413    3.97487625045056
C          -5.96410805991175   -1.56074095051736    3.49584452762413
C          -6.93226261656532   -1.81987408161265    4.64678920298891
C          -4.10075209022868    0.02449132864187    4.03514982827312
O          -4.70770762882780    1.00716382282113    3.64860117726029
C          -2.79252230614466   -0.15513376023241    4.61403961856083
C          -2.62490915738945   -1.54696297228319    4.88156646048273
C          -1.30580358816882   -1.73784906561107    5.45783011246320
O          -0.72228013916586   -2.72583058038793    5.83978670851860
N          -0.75711984445439   -0.44134326673917    5.48804315458837
C           0.55298180020903   -0.19940437683602    6.04687252982717
C           0.48401875674813    0.46514040354853    7.41903586519334
C          -1.62144047229429    0.50513442003906    4.99191002349768
C          -1.28589316566765    1.87484710139775    4.88110039468981
C          -2.16713326980358    2.78941033207970    4.38729190959866
C          -1.96438524151335    4.17731567341725    4.19456744763802
C          -1.17110915351222    5.13355764763122    4.84197137556842
N          -0.24595040856526    5.00483991138683    5.88581758516786
O           0.19548430553728    6.03617813536496    6.36955148053771
O           0.08471344587337    3.89250074549867    6.27568280952794
C          -1.51275165668629    6.43696776810138    4.34537760884323
C          -2.51161502073328    6.31970798490069    3.43259703194937
C          -2.82501183771106    4.93168070877983    3.27390361949604
C          -3.64357645364033    4.37771068034643    2.30064823371344
C          -3.43793104114672    3.13084636136636    1.64466274681343
C          -4.27119461001675    3.05100109312565    0.56605682052910
C          -5.09302080084105    4.21724476751049    0.52576289450202
N          -6.09103160236218    4.40324015647884   -0.43455131984215
O          -6.77264134899427    5.42180219264647   -0.40057155783610
O          -6.22706324536917    3.53348060809346   -1.28237117641109
C          -4.75681370950776    5.04926675478690    1.60252946207674
C          -5.44957423043389    6.20249059644824    1.99831545431235
C          -5.45411794460684    6.75286558153778    3.25189743941056
C          -6.11730297272425    7.94310416515825    3.59288324928800
S          -6.09697785845287    8.50439348158086    5.25063019541730
C          -7.02101316800258    9.93655814495961    4.86232087524428
C          -7.32937197057602    9.94609937692880    3.50908356069026
C          -6.82550728155000    8.84409970303681    2.79871150896708
S          -7.09975075756626    8.79553809033641    1.07941764195944
C          -8.35413352916088   10.12102233690591    1.09014489351780
S          -8.20950058368370   11.14614705790188    2.59114900212357
C          -7.30950292337272   10.86681960781976    5.88612559439485
C          -7.93729138423555   12.05532199446600    5.69302049633968
C          -8.20703480362006   13.00570014832683    6.70713927219201
S          -8.97989190165825   14.50730834686749    6.22760709092062
C          -8.95499546245481   15.14953593312050    7.84250923888528
C          -8.40661971557941   14.22735802557519    8.69974732931116
C          -7.97481608813027   13.02634501644887    8.07354511856320
C          -7.39939751624990   12.12667024792622    9.07034226731660
O          -6.90257918631683   11.03552450113155    8.90837334083098
C          -7.52522776263975   12.83502963433838   10.41242301988908
C          -8.19430280402803   14.17695471994192   10.14548295087331
O          -8.49711185468295   14.99414922052580   10.98110775374002
C          -9.50285759909604   16.44123040161491    8.16436017094574
C          -8.90448731101454   17.38312268428193    9.07238381505615
C          -7.59071631004421   17.33502683594413    9.57801660063552
O          -6.79233853169057   16.37958966697888    9.05138622534901
C          -5.45034199856012   16.22503624437322    9.47370766758927
C          -4.82103971623212   15.14749129819208    8.60333404710427
C          -7.25683623996546   18.31272725110256   10.51094809626761
C          -8.16265207401691   19.33840752272206   10.86561513290289
C          -9.43228693510462   19.45655846818693   10.26515648371147
C          -9.77853942040458   18.45758390265435    9.36567152258435
S         -11.25786364576320   18.31294797553793    8.42875439442066
C         -10.72546648025833   16.84660740700038    7.72322176577818
O         -10.14087355911957   20.54311627949308   10.64541708894245
C         -11.46286672157728   20.75213964134254   10.18599077246792
C         -11.98099230263478   22.01221878781417   10.86110678672944
C          -7.63519582765838   20.22174717635999   11.84160227641894
C          -6.37554316339035   19.90803195453803   12.24888496468619
S          -5.77280442097419   18.49052045521808   11.42079851470207
C          -5.57848768324203   20.60332902934126   13.22298606948448
C          -4.34438820542025   20.25904865351693   13.57830802703954
H          -4.00747698701984   -3.23999976316053    4.51087437916657
H          -5.93110473266676   -2.42331285584043    2.82379557480748
H          -6.27996059625666   -0.67826911448088    2.93308802079791
H          -6.61708879869001   -2.68396324142703    5.22731713848607
H          -7.92830539389174   -2.00642566263549    4.25576189849654
H          -6.97198541849258   -0.95459775785016    5.30360756156616
H           1.14083732076109    0.41025106339183    5.35523760794258
H           1.02043017715141   -1.18440750830997    6.13436659581648
H           0.09647086991137    1.47811688176470    7.34813240604046
H           1.48086138644644    0.50902596975888    7.84855241376931
H          -0.15439829781991   -0.11390515925644    8.08236547148774
H          -0.29708760764048    2.17676959113365    5.18261111469470
H          -3.13842965146722    2.43076722219324    4.06965406948792
H          -1.02438347158919    7.33583227546621    4.67035660975083
H          -2.92983258892291    7.11071843246872    2.84125606565567
H          -2.66229270462820    2.43188861663445    1.88764528004231
H          -4.32509614794251    2.26032310528911   -0.15812984499691
H          -6.10018823309053    6.62625578161707    1.24265752386927
H          -4.94912148544094    6.24751178630647    4.06367075754368
H          -9.34505016551106    9.66673971902517    1.06612151208137
H          -8.20960175169461   10.75202032008241    0.21606404907041
H          -6.98246716860332   10.59108486522934    6.87961734982266
H          -8.25612249780133   12.34185879778134    4.69970091859244
H          -6.54548027539546   12.96747789836501   10.87706613043300
H          -8.11840132052256   12.23734862377096   11.10840603784891
H          -5.42085046795161   15.93465510558894   10.53107681000608
H          -4.90269466166267   17.16675218309023    9.34961400560783
H          -5.34736861951915   14.20395495769574    8.71747132485276
H          -3.78247800446369   15.01060030259982    8.88809149785128
H          -4.86742206642047   15.44186479016575    7.55832562120039
H         -11.37683023690211   16.32171864365286    7.05132415396624
H         -12.09520435373786   19.89479693142506   10.44740965117583
H         -11.47015607370249   20.87792244416458    9.09582304400379
H         -11.97992286852466   21.88372272932283   11.93991940342767
H         -12.99339973380437   22.21724850980410   10.52672774585923
H         -11.34397114835094   22.85602685150111   10.61089648572098
H          -8.19622391089185   21.05658368509891   12.21932749933563
H          -6.06231903213591   21.46226626653071   13.66980229366707
H          -3.85173982178469   19.40669244897789   13.13976647564439
H          -3.79118391922022   20.81567886515196   14.31346970106551
