109
 SCF done       -221.290729440181          0.000839844816
C          -3.61999704811838    1.44521401796693    6.77888426415832
N          -2.88067241392249    2.56007857038046    7.00789983877533
C          -1.94151171874309    2.74603915834135    8.08600060461612
C          -2.65386841804193    3.01439849761178    9.40897279639216
C          -3.19054016058056    3.58617160000392    6.07951295667435
O          -2.64954460798913    4.67055341281489    6.07204749333885
C          -4.20772961274770    2.99108713473706    5.24299837759981
C          -4.43992405446647    1.66028803395034    5.70413523941621
C          -5.45066070926690    1.07481238311009    4.84666511136721
O          -5.98166546020024   -0.01115414495838    4.83716302850977
N          -5.74784830410552    2.09379143906694    3.90755257292345
C          -6.81028444295971    1.88985464724478    2.95146636505991
C          -8.04847971760077    2.71483358162883    3.29262331788233
C          -5.02020860785260    3.23507041998200    4.14794046282139
C          -5.02332316509439    4.48640107956678    3.46184324721963
C          -5.55210044052996    4.79563627547782    2.26096017645595
C          -5.44476343553993    6.11225662664132    1.68594344465761
C          -5.17832229108635    6.32533485448092    0.31950847404904
C          -5.06560206809862    5.22527706869236   -0.65614767133598
O          -5.16632305406080    4.04985263063272   -0.46193418299738
S          -4.75110544111772    5.91330627352925   -2.28162541257834
C          -4.76207254253523    7.59300129971173   -1.67615695489849
O          -4.63085690482985    8.53373857815552   -2.41141482462823
C          -4.97992079101533    7.59652123251132   -0.21567674769158
C          -5.04574508010843    8.78461696629434    0.55642029094124
C          -5.42968508598389    8.57090253710380    1.89738691855578
C          -5.60948352798770    7.29480626550204    2.42515329309776
C          -6.10709779195002    7.45101219899310    3.81598541516532
O          -6.51516582202071    6.64135296552452    4.58823522662509
O          -6.10071240699203    8.79287230265283    4.09183564710828
C          -5.70453509011034    9.52750579067900    3.00301393559464
O          -5.63938221310317   10.71614427614525    3.04611549702947
C          -4.72144318054846   10.03089438818868   -0.07447932592248
C          -5.19489649012942   11.26432859474926    0.20741803197333
C          -4.91515296173345   12.40367453395685   -0.59629826586536
O          -5.18000749190549   13.62572487022013   -0.06974347880133
C          -4.89259052968561   14.55500791620057   -0.98409802850919
C          -4.44645013391698   13.96284314776566   -2.15585048519639
C          -4.47181704793107   12.56084159565397   -1.91643673166387
O          -4.11861687997338   11.66416607145530   -2.82646105672181
C          -4.05655135355869   14.63092053804411   -3.42226111394152
O          -4.25128568006125   14.18976600213993   -4.51033620705888
O          -3.45261408207177   15.83652199129670   -3.25337782152924
C          -5.05502089342400   15.94905809900459   -0.60238506647700
C          -5.74499332578520   16.91046051807786   -1.35708544196334
C          -6.47568214159112   16.59165924793825   -2.60732638066546
O          -6.65956475156511   15.51617187174999   -3.08861317391264
S          -7.15905958661486   18.09972359056688   -3.28132282325519
C          -6.63129023426421   19.08300630387218   -1.87808474649961
O          -6.88817672888060   20.24715426341489   -1.77727069464584
C          -5.87862882389908   18.23127247287893   -0.93428230451723
C          -5.38983035818225   18.69566412354681    0.31123024898711
C          -4.66600712141447   17.73016378782374    1.04114698242155
C          -4.50356856966384   16.42621637988795    0.59204319217459
C          -3.55779383614725   15.74259483365957    1.51288822213689
O          -3.08323023965919   14.65316996524313    1.44619077203475
O          -3.21924692001362   16.65282582076591    2.47686607113103
C          -3.81341899378778   17.87518678243358    2.25106460351740
O          -3.56961089580706   18.82717980503980    2.92241597890423
C          -5.61175689163909   20.03612960909050    0.76908931013863
C          -5.84036136972708   20.33286835439858    2.06988673481935
C          -6.08082518166555   21.59476904369091    2.67526073721464
N          -5.89557328504991   22.86599079753957    2.18732339356206
C          -5.40544042929900   23.27446556106925    0.89212643287787
C          -6.53133070982922   23.40714933899813   -0.13098389447777
C          -6.21640132454395   23.84615643928764    3.14981934602427
O          -6.10844541017878   25.03780528871388    2.94668584379559
C          -6.63896953768105   23.09391415228768    4.31134572262497
C          -6.53838684020932   21.72082159287358    3.98273437732504
C          -6.95398067092221   20.94666435953788    5.13182975732807
O          -7.05937995892765   19.75559501233889    5.32056241758690
N          -7.27346932462137   21.92614601121398    6.10126518401930
C          -7.67211532622731   21.54409902242999    7.43458100627580
C          -6.51216144965608   21.64649219292753    8.42202424113205
C          -7.08676242575714   23.19742075284772    5.62535855413202
C          -7.34433289202077   24.37895202185259    6.39653889523025
C          -7.13273236291741   25.60922359056525    5.92195518881507
H          -3.50524121121201    0.57064086147787    7.39282991742689
H          -1.32386942854399    3.60608167242798    7.81391590411860
H          -1.30731265674694    1.85842076361543    8.16626413908940
H          -3.26437430484492    3.91040315159115    9.32933148493419
H          -1.92234357915603    3.16049362421327   10.19854908544171
H          -3.29566022653206    2.17803784385030    9.67694671147546
H          -7.05230632593733    0.82399686316761    3.01055334653589
H          -6.45152498306432    2.10126105166471    1.94093455454961
H          -8.44336189931058    2.40697408993128    4.25765582311268
H          -8.81419658721043    2.55564452311918    2.53841985670081
H          -7.81554033563613    3.77588812213046    3.34119058649939
H          -4.45913237005094    5.23936301846214    3.99757038767720
H          -5.99942619986126    4.04501557055138    1.62979118653808
H          -4.04276757990010    9.92665840309334   -0.90647357242649
H          -5.81890752857282   11.45598365160989    1.06648313986838
H          -4.38174199755301   10.75573131180722   -2.61101233351418
H          -3.18991647779602   15.99739774150221   -2.33905640894654
H          -5.68806805516885   20.78771454918758    0.00087753991728
H          -5.91846497954468   19.52426103703830    2.78497161493317
H          -4.63688435396361   22.57325037632882    0.56061203918412
H          -4.94554255547935   24.25664767072004    1.04061176778153
H          -7.06154748045557   22.46902123661341   -0.27408051396282
H          -6.12121997447150   23.72107191500033   -1.08666708983129
H          -7.24190179206365   24.15843146617070    0.20452981506514
H          -8.00141507006425   20.50359888713479    7.36361359723954
H          -8.51669255144885   22.15891354953340    7.75749613606317
H          -5.69863822152041   20.99825385913657    8.10599036756080
H          -6.84112023204015   21.33460738667355    9.40933672077690
H          -6.13840635080807   22.66632096953239    8.48207883370029
H          -7.72691336696408   24.23725816957231    7.39772386777008
H          -6.74991533333259   25.77322558704572    4.92810998702617
H          -7.33688891870329   26.47940244414638    6.52163910121475
