122
 SCF done       -224.692423817383          0.000872693347
C          -3.80546686717866   -2.86699105550714    5.50290928498404
N          -4.54064794590155   -2.50324031977588    4.42393102956713
C          -4.54285875780565   -3.15570051115726    3.13818578005379
C          -3.30711014723194   -2.78842360004055    2.32129387139202
C          -5.29136433660337   -1.33379701781002    4.68584123563552
O          -6.03552613198250   -0.82593224267496    3.86820365718049
C          -4.95374510734962   -0.99397303738540    6.04528013687615
C          -4.03231828560380   -1.97402673505638    6.51797459813487
C          -3.72779445997408   -1.67281012516468    7.90624413570628
O          -3.00522518999135   -2.20867172296237    8.71318854567250
N          -4.50991358461222   -0.53527002533205    8.18479235927068
C          -4.44728803518676    0.11452843307484    9.47334096165092
C          -3.57780615515359    1.36807023435295    9.43390985899482
C          -5.23383796166889   -0.11454534625928    7.09408839346669
C          -6.11567972995049    0.98782668384496    7.15252410119526
C          -6.72189231215675    1.53636372558772    6.05873305550006
C          -7.67412798563019    2.58321502856240    6.05824550969550
C          -8.37798354752375    3.22581219326354    7.08457511564639
N          -8.46999033779134    2.98326168920676    8.47321318896818
O          -9.52665687024911    3.27093409930177    9.00156644816649
O          -7.51523759859003    2.52624566857933    9.08391403437722
C          -9.19674456440024    4.26450137246734    6.52595629833177
C          -8.95557008307372    4.34863401138786    5.19432102004524
C          -8.05544855121222    3.29315406531907    4.81942866863997
C          -7.71257701760582    3.00221198955563    3.50985632686923
C          -7.53512671574274    1.72154304251533    2.90376085315077
C          -7.56025877965090    1.86875400002324    1.54911081225486
C          -7.66059709494107    3.26271157346949    1.22720188198166
N          -7.63274010527361    3.74672840410068   -0.08895677609196
O          -7.69229261595929    4.95472585440495   -0.27343029890651
O          -7.55775421595670    2.92630126898478   -0.98786364613106
C          -7.72065345475019    3.99562538574200    2.40754633921859
C          -7.63988936714723    5.39728181545669    2.54304493015335
C          -7.19707467954323    6.03701606529485    3.66090741332220
C          -7.24706944299275    7.43839872732302    3.86445833702578
S          -6.89258243828266    8.03695173555334    5.47075464078707
C          -7.31919443057076    9.64939036033158    5.01404648021075
C          -7.32455889466268   10.75203010671337    5.86550650533207
C          -7.66346468222557   11.97968000381196    5.26494223299271
C          -7.83470309721213   13.31086793713772    5.74265657281811
C          -8.21746237322895   14.04782904529866    4.67072362958320
O          -8.31625121231476   13.31206684186610    3.54720604033004
C          -7.99268161789023   12.04249024612890    3.88567907181814
C          -8.00195613365238   10.94379703530915    3.05405865899848
C          -7.65930349005438    9.71975533117117    3.63385681439104
C          -7.62425887967014    8.44998834486122    3.01499308568973
C          -7.02827164824193   10.65231825324055    7.27853395002975
C          -7.57305416606194    9.80720941315350    8.22773053699146
N          -8.57567030076981    8.83905131114145    8.07488368338409
O          -9.04231100606110    8.64934108446463    6.95868029493445
O          -8.93936187890205    8.24014789553187    9.07272874695506
C          -7.02582834422987   10.13051704277482    9.52797638061901
C          -6.20202413611350   11.19351939057507    9.39681931852246
C          -6.14133706146702   11.56122011030023    8.00131471523788
C          -5.28605317795584   12.48322081409228    7.43033632271034
C          -4.71318498767512   12.41779309266767    6.12329390091000
C          -3.73112064177073   13.35778137588829    6.02573016412998
C          -3.69506502585178   14.11838232285068    7.23720292234902
N          -2.87901729306692   15.24999911171519    7.40688278231999
O          -2.01339390851331   15.44283642598787    6.56989411781115
O          -3.08449302625845   15.97950067532199    8.36312626167935
C          -4.65003894869634   13.62178228398462    8.12261403907000
C          -5.02549293974614   14.17035322849692    9.36381576626450
C          -6.28472280866651   14.08399661536934    9.89220761511149
C          -6.62384388772202   14.59097792469233   11.16126931755228
N          -7.91206224392774   14.69437745035275   11.63271515869867
C          -9.11513108756946   14.27692726771754   10.95200768098576
C          -9.33835930279757   12.77067184937008   11.06256267593051
C          -7.96256931545913   15.24682085879149   12.92319576917938
O          -8.99442390600717   15.44055320507838   13.53029516821975
C          -6.57329857265731   15.48844641252163   13.26264644771102
C          -5.78144106928426   15.07209213235685   12.16936371988772
C          -4.39247209990367   15.27667875708718   12.51913024914433
O          -3.35850283128213   15.03589160969158   11.93775719283623
N          -4.44504591195017   15.85008697535218   13.81168486842962
C          -3.23123334027559   16.17015686508904   14.52410947127330
C          -2.86610346961948   15.08703266423520   15.53622219977277
C          -5.72799955122957   15.96931895630579   14.26548851802963
C          -6.07101632762151   16.51336492033638   15.54583547180089
C          -7.33114430494599   16.59919893268390   15.98243119969643
H          -3.18039867586803   -3.74049551885323    5.48227999476645
H          -5.44530749961785   -2.82011890532508    2.62046557913239
H          -4.59465037733677   -4.23771988372124    3.28758278254965
H          -3.27519322786224   -1.71479851286392    2.15330381748590
H          -3.33995413546174   -3.29012918077510    1.35862185946902
H          -2.39956224615486   -3.08746517860032    2.84099782621402
H          -4.00950497286142   -0.61774830097568   10.15703939230135
H          -5.45602907839477    0.36112893830264    9.81358011159452
H          -2.56856475094083    1.11485777740179    9.11716887419536
H          -3.53205327381038    1.80999464721198   10.42494930466466
H          -3.98939522931009    2.10244755180577    8.74568695003811
H          -6.30336781320957    1.40307333904264    8.13006325601739
H          -6.43147378980946    1.16489713626689    5.08747535045285
H          -9.86512658781943    4.86808219248926    7.11024634445461
H          -9.44049344820687    5.00939283375402    4.50369938547912
H          -7.51946148829769    0.77903584452728    3.41220411703670
H          -7.51734885046911    1.08925206610202    0.81236696477509
H          -7.90350166451692    5.97335671282763    1.66609874140238
H          -6.80140150654658    5.45975869017708    4.48560214372159
H          -7.68885916325186   13.66889646220378    6.74015185949496
H          -8.44584395587072   15.09242453685966    4.58182995741040
H          -8.27235759314767   11.01889421031460    2.01420841321911
H          -7.86265671395504    8.29716561279688    1.97812518161087
H          -7.26774692701779    9.58191128983136   10.41789713354822
H          -5.59877487822282   11.63623768463252   10.16450419960314
H          -4.94391291619503   11.66624627680035    5.39406608166712
H          -3.07715104968938   13.53689318747535    5.19324183663428
H          -4.27420100917314   14.75795636581424    9.88011569959271
H          -7.07759502026770   13.64449853427484    9.30337818723827
H          -9.06915465354666   14.59146087232302    9.90570192359518
H          -9.93820365002125   14.80492514917901   11.44152109444999
H          -8.51122092069651   12.21447594369053   10.62632183566884
H         -10.25406681830200   12.49628714085837   10.54654749911345
H          -9.43275105387959   12.48616956844413   12.10738434497621
H          -3.33872346895885   17.14195801677903   15.01266869119447
H          -2.44656096994078   16.24187945004787   13.76582547960977
H          -3.65193881986187   14.96291206786021   16.27820181141147
H          -1.94415014504808   15.35592135442523   16.04374346079691
H          -2.71721142236115   14.13814074296921   15.02697765244627
H          -5.25492446579492   16.86553568465740   16.16124820343261
H          -8.16165665334887   16.25685778880691   15.38721000342030
H          -7.55698530710539   17.02098199680853   16.94654883101833
