83
 SCF done       -148.921749440974          0.000673718710
C           4.41173982249097    3.67277518612430    6.20403083294447
N           4.68723420929910    4.95007625247992    5.82735602363171
C           5.84236806084361    5.71571719957420    6.22390030921989
C           7.09667791971933    5.26674926037657    5.47890160143941
C           3.72120810792534    5.43975889769339    4.92140694458447
O           3.75805893142346    6.56015051126408    4.44734933267389
C           2.79762065423963    4.34278946705735    4.76814871141312
C           3.26501293469606    3.26272994449800    5.58507671154358
C           2.33374972349012    2.16135098862086    5.44369755965109
O           2.29591151943944    1.05443013091647    5.93068775273511
N           1.35914180348163    2.65279588406150    4.54986073197620
C           0.26076357465197    1.82370169361295    4.11661627975915
C           0.50470876685733    1.23360033325114    2.72979884545488
C           1.62728193210266    3.93945296631259    4.14190389273611
C           0.79643204678454    4.66648986233235    3.24515851315202
C           1.07307809497304    5.93388671578925    2.85911779186641
C           0.22853914601054    6.64565902214492    1.96359174167965
S           0.54027137750477    8.31986541246785    1.52257326673967
C          -0.91354573529395    8.19015178257214    0.53440459815474
N          -1.45816515169430    7.00934172234955    0.60838241162036
N          -0.83892635662219    6.16864297858495    1.38613089090614
C          -1.44899636330327    9.25497127923703   -0.24619625528537
C          -0.90876983185803   10.48654910364835   -0.29139007222381
C          -1.41301590425358   11.61951027008769   -1.02811673819467
C          -2.48562951611375   11.54525543893812   -1.91379040012672
C          -2.94174662942431   12.66809937620136   -2.58643118845736
N          -4.02128079597835   12.45021222685620   -3.51184215454849
O          -4.74779934456828   11.49959422400735   -3.30202171938497
O          -4.14610658812231   13.20411169370923   -4.45660310229664
C          -2.36611490919631   13.94228293461233   -2.38693661372592
C          -1.28199294823859   13.99338783110643   -1.49539585130968
C          -0.81183051178592   12.87643954001241   -0.85122344753246
C          -2.90485602235981   15.13727906734057   -2.98224175633876
C          -2.24638166958310   16.30867961836783   -3.10182370388036
C          -2.79840652432600   17.49203224946615   -3.67577614304907
S          -1.88216651034762   18.97155543664788   -3.63168542727347
C          -3.12055526204684   19.82806959041554   -4.44795113551814
C          -4.18310847847247   19.03867309520065   -4.75195594507498
C          -4.00940398172389   17.70271440438429   -4.31792044860928
O          -4.94609561596526   16.71729607241037   -4.43223245667134
C          -5.59029473645409   16.50098544711680   -5.60253178136816
C          -5.27765527391489   16.99795724413372   -6.80248619801768
C          -5.99432060231419   16.73972481347128   -8.03472705596046
C          -5.66286797250930   17.47792858218105   -9.16726140265361
C          -6.32077170947007   17.28576271931430  -10.37391827994880
N          -5.87395919309065   18.07733887205492  -11.48755963860216
O          -5.28881096507248   19.11250210463128  -11.23581588969462
O          -6.09087367780641   17.67336709531326  -12.61134752278238
C          -7.35168434917714   16.34312123897205  -10.50571755525372
C          -7.66804953993773   15.60395902758791   -9.36130609419173
C          -7.01209209790017   15.78581712216419   -8.16471343754807
C          -8.11441848371756   16.15621835023110  -11.73447707308788
C          -8.57437924955599   14.98186390481771  -12.14644757843346
H           5.04905215724018    3.15011153552666    6.89317854943666
H           5.98436078720828    5.61692988130153    7.30416083411143
H           5.61960972158915    6.75898637366456    5.98458465352844
H           7.31324405825161    4.22105203373483    5.68620575309289
H           7.94629986478990    5.86783917376564    5.79027077290417
H           6.95796130567145    5.38753624064369    4.40734976158796
H          -0.66590587574338    2.40377474793088    4.13454535271650
H           0.18696580008599    1.01606993257464    4.85064594417059
H           0.61629730581817    2.01869877081186    1.98534054712227
H          -0.33237629661681    0.60107933272453    2.44790858389763
H           1.40932314629038    0.63041133768304    2.73752905279532
H          -0.09387151913818    4.19282615135672    2.85874227411736
H           1.94936081835341    6.44889232199714    3.22743491830496
H          -2.34502384876194    8.99549365586929   -0.79030688539484
H          -0.01746020958586   10.67775175418631    0.29487223236950
H          -2.97671149581629   10.60485391724154   -2.11123391572256
H          -0.82129931735126   14.94699616024189   -1.29315239423857
H           0.02694670093142   12.96554887060153   -0.17636043825351
H          -3.90823264406960   15.08083151328063   -3.37367121839853
H          -1.21882840830733   16.40465018630588   -2.77748480016651
H          -2.99742427634141   20.87303533875192   -4.65037384879540
H          -5.07156120185849   19.38970021823784   -5.24531968151650
H          -6.40651591560023   15.81304650703439   -5.43727013690933
H          -4.43035650087486   17.66402275290635   -6.89510569898455
H          -4.87541955175699   18.21673481042570   -9.12945456734622
H          -8.46730035257225   14.88160318499548   -9.42381434423084
H          -7.28743976284045   15.17716396871284   -7.31861660292884
H          -8.29107902687370   17.03821061426347  -12.33442832367808
H          -8.36903461558968   14.06659249683069  -11.61626156004218
H          -9.14376697014667   14.89169002954052  -13.05453549077796
