100
 SCF done       -164.376751120794          0.000603300025
C         -10.02594187405456    8.19102527827747    3.18703057393766
N          -9.38885305285198    7.01430479143636    3.44188512556146
C          -9.97364632910304    5.82549314583999    4.01271327359425
C         -10.61616979677298    4.93948751324288    2.94977786429815
C          -8.05162893549377    7.05631684622267    3.01854274362025
O          -7.28899715433422    6.10448418741601    3.14410675970017
C          -7.88125064677406    8.37887437453292    2.48321152834016
C          -9.14015007782373    9.05473231421636    2.60868111516861
C          -8.98393687279738   10.39061996716696    2.07300740692972
O          -9.74943983368528   11.32169896877023    1.95648541417176
N          -7.63889965003349   10.43531714918999    1.65121187764955
C          -7.07361013517729   11.63983444708015    1.09613927143347
C          -6.24630776120056   12.40675283385994    2.12551095419812
C          -6.97411773783421    9.25373257117638    1.89070103378374
C          -5.61322669454412    9.02378087332285    1.54772017478543
C          -5.05441425437488    7.82026299625605    1.82488784747482
C          -3.73362698400416    7.36715662697716    1.55169323514316
C          -2.67641444434752    8.13073715644074    0.99706379133353
C          -1.51729519030653    7.42952184368337    0.85579959503594
S          -0.02599187873121    8.06841433893657    0.21366198945758
C           1.07146070218556    6.63245530414567    0.37005241440892
S          -1.68300006512704    5.78038966449681    1.39418607344770
C          -3.34771890985561    6.04599233222859    1.82784591188935
C          -4.16082753195041    5.02676056912871    2.36581512334311
C          -3.80669588411755    3.74203261642243    2.61795547828807
C          -4.72809197674987    2.80842602422010    3.16524386905364
S          -4.23300079069059    1.18002673411888    3.54944496777801
C          -5.80943240931897    0.76715198243609    4.15686491624561
C          -6.67424606440709    1.85313097255415    4.02178212323259
C          -6.05972472063551    2.99163911335018    3.47226338755178
C          -8.05698911900323    1.86175837268729    4.27868923504508
N          -9.19604021537125    1.95188733838930    4.38838940465276
C          -6.01694577538109   -0.51397405232277    4.73579271736369
C          -7.04546795968625   -0.80813953934143    5.56280487053922
C          -7.23783799168788   -2.07174472267262    6.20776156845091
C          -6.64897166186099   -3.29199908315037    5.79413065382622
C          -6.99827018235244   -4.35372046148422    6.57489611468089
S          -6.54755329880789   -6.03382217184122    6.44933495726252
C          -5.50212157085850   -6.02043792760198    4.96483475287137
S          -8.05865835201103   -3.89771530352057    7.87211004963499
C          -8.04229406618422   -2.22998389804011    7.34300023148118
C          -8.72612229772078   -1.21048612144968    8.02454651850084
C          -9.49187806144637   -1.34205226387300    9.14266187505312
C         -10.15641718893691   -0.21690071614859    9.68352177579579
N         -11.00024001331678   -0.25243648506922   10.77213294537225
C         -11.34782108104019   -1.41601859422420   11.54901988989835
C         -12.40636961544551   -2.27044144910409   10.85515909957307
C         -11.57605662154365    1.00166769002170   11.03858477737951
O         -12.35045855594163    1.19689816393896   11.95580599959152
C         -11.02161237284065    1.87402718989694   10.02806056527126
C         -10.13670527258277    1.09926990255252    9.22554795988393
C          -9.56628279065632    1.97058315437868    8.23332539393854
O          -8.72174488254702    1.79278543661601    7.36876625203258
N         -10.18573617686553    3.20926842236818    8.45647456987496
C          -9.90147527716409    4.33314835899380    7.59966685879863
C          -8.87132344199004    5.27994358058624    8.21052825201605
C         -11.04373537943676    3.16899975178989    9.53246738117625
C         -11.79624797065603    4.30324814957720    9.98403634635372
C         -12.60672942932183    4.26255961362279   11.04376958600016
H         -11.06008747163553    8.32607386883002    3.44330553856224
H         -10.70950664358474    6.12015170881690    4.76516231909324
H          -9.16329145067681    5.27431326635410    4.49776565612058
H         -11.45920420458096    5.44333588027230    2.48187008248697
H         -10.95646519229071    4.01393121784590    3.40474992942403
H          -9.88509063506371    4.69413308229032    2.18329665264275
H          -7.92217420249402   12.25264033814488    0.77860157160029
H          -6.47012098517705   11.39181667130388    0.21804503549011
H          -6.87300800918797   12.68625808266578    2.96881431656442
H          -5.84359691080012   13.31068794723402    1.67671381477186
H          -5.42215892279457   11.79960727874722    2.49400341329226
H          -5.05888379952478    9.81037646104789    1.05896881821413
H          -5.69439069867644    7.10542456591961    2.31413796582588
H          -2.76005019989943    9.16475969051651    0.71875513576696
H           2.04027997338011    6.94737607474612   -0.00384712719583
H           0.68498663224740    5.81202677334040   -0.22793987379323
H           1.14608710905010    6.34415739672405    1.41468784652978
H          -5.17340669103281    5.31381414165586    2.59940937732375
H          -2.80282004190297    3.39233156915721    2.41408868234345
H          -6.59064597458495    3.91352908804437    3.31507485243518
H          -5.23867931247505   -1.24107529599620    4.54435970298026
H          -7.75048996401958   -0.02497149628601    5.79990764552424
H          -6.01461522139982   -3.37023875456301    4.93138082450067
H          -5.18630562859567   -7.04823667045452    4.81530828156705
H          -4.63626964651764   -5.38624502046442    5.13037096031483
H          -6.08257021053952   -5.68209584299976    4.11166167313840
H          -8.62394553628552   -0.22125984552030    7.60269369900298
H          -9.61218731974899   -2.30792664197205    9.61286756132210
H         -11.74497219405569   -1.04049569882487   12.49663099667743
H         -10.44629484583427   -2.00190707967079   11.74996352796428
H         -13.31036430790273   -1.68597299279823   10.70254262348694
H         -12.64807198029702   -3.13171363284826   11.47208230647334
H         -12.05159108170454   -2.61914683212819    9.88775682948057
H         -10.83129466080967    4.86255397497838    7.37293902255225
H          -9.50408272539128    3.90632437398842    6.67345973938943
H          -9.22806626538699    5.68908020100335    9.15350872553653
H          -8.66905329829412    6.09902496109721    7.52511713554235
H          -7.94342023457315    4.74432268751451    8.39490356816209
H         -11.68015517174263    5.22007794113010    9.42193345523690
H         -12.73424681573934    3.36162439949055   11.61988498971488
H         -13.15813168219081    5.13181628977272   11.35824628080099
