97
 SCF done       -160.440265812987          0.000719169174
C           0.92850796835914    1.12936127298124   -5.69878862612020
N           0.81198638157905    2.17564201752255   -6.55941951589062
C           1.34958970787264    2.23514676059948   -7.89491836089966
C           0.51428254253585    1.41558726290110   -8.87516051004203
C           0.02677396558274    3.21708163660761   -6.00542706070522
O          -0.21971245659467    4.25375816332093   -6.58980333507196
C          -0.32900556041690    2.71774304513018   -4.70294180997052
C           0.24828921137397    1.41889294169796   -4.54877480360481
C          -0.11774415864783    0.93699048457876   -3.23432348434473
O           0.10423822561123   -0.10126651905001   -2.65204009347446
N          -0.88412312457187    1.98600512533730   -2.67520265716181
C          -1.42938797960656    1.83123027493321   -1.34916144057263
C          -0.50230843829055    2.41012309187981   -0.28168093233450
C          -1.00727081980201    3.05265446547086   -3.54044944669697
C          -1.68348353074345    4.29253557366348   -3.38028595092550
C          -2.21756737443165    4.85590237480636   -2.27004675682374
C          -2.86139741742118    6.12429475733447   -2.26373759892949
S          -3.36106068275168    6.81597805558983   -0.73637214036860
C          -4.00383368694561    8.23202271801459   -1.51121245141115
C          -3.83543130467469    8.14771589380577   -2.90096360425357
C          -3.18994874097408    6.96462251764144   -3.30175883427801
C          -4.26747391832365    9.15631716402892   -3.85339826261096
O          -4.83316216938847   10.19479690547485   -3.60461940813088
C          -4.59057798224196    9.28935578869183   -0.78643993534451
C          -4.64964985547415    9.33931848608676    0.57050327004746
C          -5.22455056917085   10.39458039544815    1.31033803088194
S          -5.98233402619575   11.74305937983015    0.51207549891105
C          -6.33541075410834   12.52031962503713    2.02287433206090
C          -5.86910318151957   11.75693927192033    3.08952666214080
C          -5.24001169820236   10.55283716187930    2.69863568017729
C          -4.65278946460828    9.58728765365056    3.61236252530228
C          -4.16554996506837    9.88308230698955    4.81237219707796
O          -6.05096832409607   12.14671003821525    4.39313033396165
C          -7.10523631907675   11.47320983535201    5.05748231920123
C          -7.02490822716676   13.76309682966518    2.01576111645978
C          -7.19107690957343   14.56564688831459    3.09539234876127
C          -7.90399879971311   15.79246271728002    3.08331556183174
C          -8.62980927510272   16.40355497769378    2.07324744827155
C          -9.20527666289107   17.60784476266841    2.44996839121986
C          -8.93645480945574   17.97141539406748    3.76357928252934
S          -7.94759673685033   16.75528505792570    4.52795358060378
C          -9.41724234461011   19.15352475317696    4.37950583903740
N          -9.14685691828151   19.59661909494866    5.65546037065773
C          -8.23731450660640   19.03984433271978    6.62583362648137
C          -6.78620362505463   19.40183459640017    6.31992533015074
C          -9.81440869110386   20.80765742906282    5.94569011318940
O          -9.72233219342086   21.37956622702748    7.01196013453826
C         -10.54949526690483   21.10302489171743    4.74298748024292
C         -10.28531389886030   20.07673119708657    3.79593729634684
C         -11.04674817260044   20.38524309798400    2.61341247431082
O         -11.16366107283215   19.82316389765723    1.53841585925476
N         -11.72991461110642   21.58001798680313    2.92558667251351
C         -12.56679807080653   22.19748825113424    1.92706889366732
C         -11.85350873027583   23.34649220087835    1.21771302160957
C         -11.43306841451775   22.01869936753727    4.19501636764429
C         -11.91124389244226   23.16513454290729    4.91636861990989
C         -12.73288952787524   24.14502709920108    4.53718401722780
H           1.49631102204546    0.25660502116437   -5.96407190743493
H           2.38344982776990    1.87713803988713   -7.88272813868050
H           1.33719731910101    3.28900019910172   -8.18620445042578
H           0.49583135663291    0.36817878103339   -8.58187543685082
H           0.93517777414225    1.49202568509547   -9.87376550737843
H          -0.50647853896239    1.78909068012587   -8.89710752759180
H          -1.52589474334840    0.75302692303780   -1.18606700045330
H          -2.42391200964189    2.28134595120178   -1.31002680848739
H           0.43709453794054    1.86318395936786   -0.28134788703059
H          -0.96088916746128    2.31417369538328    0.69886615158621
H          -0.28732260661151    3.45963519561966   -0.47112990331204
H          -1.71477314250333    4.85214070390644   -4.30599266746471
H          -2.15539338961483    4.37459905719300   -1.30673122322048
H          -2.97839520878014    6.73675878645973   -4.33100218380391
H          -4.02726724527355    8.88101622384022   -4.89871988590345
H          -4.99153223743859   10.10100614282714   -1.37934099261122
H          -4.21512908200730    8.52590289702479    1.13830736754141
H          -4.60793265810256    8.56788111408146    3.25144643218598
H          -4.16812845714610   10.88851411623960    5.19587621817416
H          -3.74098274894202    9.12258825085631    5.44514357173275
H          -7.10560896742063   11.84727171695410    6.07934810023559
H          -6.94716086722285   10.39092079550450    5.06276657540832
H          -8.06758452678451   11.69623849622729    4.58456553051440
H          -7.41871643764154   14.06639002870106    1.05543278046946
H          -6.74899708990231   14.27781365476086    4.03795024447018
H          -8.73930701893360   15.97897080682039    1.09225350132492
H          -9.81110109952779   18.21551338081006    1.80098862417749
H          -8.36743703019863   17.95658792858121    6.68330807599293
H          -8.52590384816346   19.48152370901832    7.58473413812375
H          -6.48416548398639   19.02004507940662    5.34772231482179
H          -6.13443201046775   18.97702824224315    7.07778748386454
H          -6.66798647215846   20.48270609122211    6.32254473036632
H         -13.50228564496160   22.52607173145134    2.38554493714408
H         -12.79164388968661   21.41061656596079    1.20007786483468
H         -11.53427281237657   24.10741110062466    1.92605852966754
H         -12.51801204155048   23.79975589692326    0.48712824923739
H         -10.97528297909987   22.96811531516922    0.70068431041812
H         -11.50700252937526   23.18769126919425    5.92144452877209
H         -13.17637196810296   24.22228624453292    3.56186463723129
H         -12.98654102571942   24.93028900121750    5.22884894617277
