108
 SCF done       -184.941746166185          0.000447201324
C          -1.40427729256819   -3.13931170133889   -0.34382339354856
N          -0.81407940494496   -2.25756549538190   -1.19568801767932
C          -0.05575779557456   -2.60099235587163   -2.37141187664184
C          -0.96140652727325   -3.07205533178222   -3.50655573666377
C          -1.09107024434291   -0.92114950453279   -0.82926201720388
O          -0.66418696537012    0.03996815062827   -1.44478173244069
C          -1.91127124260879   -1.04570849351480    0.34629157960183
C          -2.08132898275612   -2.44253604906947    0.61609199986789
C          -2.91553366683866   -2.57187429498902    1.79318144157604
O          -3.33332472145425   -3.53452780095374    2.39832607136998
N          -3.20495262106836   -1.24203153005460    2.15355755211734
C          -3.99031589811963   -0.94265758527682    3.32504926979656
C          -3.11832176196432   -0.51390687751546    4.50308706608880
C          -2.61218857006813   -0.32798463500773    1.30639607617349
C          -2.76483071192118    1.07184606860915    1.44365079519322
C          -2.14751050422961    1.97001159841941    0.63122514843695
C          -2.33576836782516    3.36438634927588    0.73546747246150
S          -3.49297795756035    4.05180314812039    1.83762892693310
C          -3.15873266007074    5.66448476660274    1.27395417859614
C          -2.15358885558636    5.66201612217567    0.31088498878713
C          -1.70861255692181    4.35998817341662   -0.01224903132268
S          -0.49385632142075    3.85187834478327   -1.17834332010303
C          -0.58160811446092    5.17493025494376   -2.43757106454662
C           0.37474707064824    6.31594203536192   -2.12932104587920
C           0.19675690493745    6.80654561165439   -0.70186784538107
S          -1.54924789461696    7.19161651186436   -0.32446527485984
C          -3.93931978238182    6.70008973752532    1.84339761975513
C          -4.07663675849593    7.97972553830371    1.42137007584469
C          -4.95582039709645    8.90283748150637    2.04538333605320
S          -5.90291510907227    8.47024357761238    3.44868489801904
C          -6.70169778995705   10.01387620248134    3.46158679027746
C          -6.21877446952494   10.81783368362412    2.42687411582340
C          -5.23815679865819   10.18985265376958    1.64192115151764
C          -6.68351967988071   12.12380862511416    2.20064762135139
N          -7.06110322505715   13.19024633684692    2.01035590713762
C          -7.73313051750923   10.32365994351620    4.37573754233851
C          -8.11833936277883    9.48970762331751    5.37494342293777
C          -9.21295493596311    9.70481985013444    6.23996916736151
S         -10.27629482761017   11.06281441626546    6.08317227682830
C         -11.30894776689050   10.47480784310792    7.36440766517686
C         -10.81784772569371    9.27408304682340    7.89439458312322
C          -9.62128102514451    8.86204776768094    7.27377383690279
S          -8.60819340212984    7.46186327029273    7.63764021245241
C          -8.84059813398965    7.28000845126334    9.44054325517767
C          -9.98731493775458    6.33678241893547    9.76600285825477
C         -11.23389265223458    6.70716774631798    8.97993244883000
S         -11.68762431210112    8.46606247822781    9.18807568028450
C         -12.48101906412335   11.21828653600997    7.60966087320897
C         -13.49301529982026   10.94391944235992    8.48341555716022
C         -14.65871987350965   11.73207740999448    8.51410378310524
C         -15.78772173738587   11.41992090072333    9.22672392849310
C         -17.02330789388774   12.17396903067795    9.26153599548902
C         -17.25378431129000   13.41184928363912    8.71406737319075
C         -18.48633649545468   14.09196766480225    8.78810142055779
N         -19.46131527945144   14.69896147139584    8.80655321548194
C         -16.30834265855632   14.19284043574624    8.01901458774704
N         -15.60073872346894   14.89512591891590    7.44772700976429
C         -18.00264193913054   11.39183175818661   10.01106612485895
C         -17.37142053852165   10.20548094542317   10.48018561610916
C         -15.96786965515672   10.18506834917123   10.02833561007839
O         -15.15177841664492    9.31610199260635   10.26393855752720
C         -18.04288715866103    9.27065780873513   11.21282598638228
C         -19.40843342351131    9.47861326386364   11.51067683126352
C         -20.04976008486321   10.66013939545856   11.04062240244912
C         -19.32508723156412   11.61417769489591   10.28897906082290
C         -21.41450668580877   10.85416830609841   11.33531410139525
C         -22.11377708619978    9.92678386136288   12.05876490125352
C         -21.48067973339667    8.76402119801196   12.52207274237592
C         -20.15652495055503    8.54528539353043   12.25438448759875
H          -1.29328328542976   -4.19911675664047   -0.47963028132990
H           0.67169935307333   -3.37812859554102   -2.11739738673674
H           0.47672492993541   -1.69381478842061   -2.66999272338512
H          -1.51724817886020   -3.95938814282589   -3.21141201134038
H          -0.36434515487381   -3.30923197444409   -4.38268064260272
H          -1.66961642712985   -2.28949861907286   -3.76770651334463
H          -4.51693195851490   -1.86776712964960    3.57685856629824
H          -4.72815311215609   -0.17070983999081    3.08694590412607
H          -2.41978770109320   -1.30824600153855    4.75416184829012
H          -3.74229115816397   -0.31217063807001    5.36948957537225
H          -2.55130761347031    0.38273610146596    4.26254354592229
H          -3.40962628128802    1.43884431866974    2.23114870018563
H          -1.48015839319231    1.62449955246810   -0.14822995263076
H          -1.61451057855218    5.51687526036098   -2.48194938476826
H          -0.32661799304331    4.68986029361274   -3.37854610265622
H           0.18595658071513    7.13121422292766   -2.83140562899124
H           1.40709900306418    5.98274589608722   -2.25581317414895
H           0.73591780232374    7.73790295307777   -0.53354363269207
H           0.52906708071235    6.06490902114135    0.02274585739641
H          -4.53158880078592    6.38489934016848    2.69532324012508
H          -3.54888316350343    8.34355744605716    0.55326241313805
H          -4.76348465413206   10.66014092338491    0.79905762583628
H          -8.24087830671145   11.26930812860094    4.23017240397146
H          -7.57883311356510    8.56226125455147    5.52281367700738
H          -9.01103377992462    8.27637636884183    9.84540818380354
H          -7.89273650257467    6.89870147500061    9.81775086677358
H         -10.19066751530658    6.38922923195727   10.83766912320657
H          -9.70973503495054    5.31024352743522    9.51623785818860
H         -12.10348440368061    6.15779898283012    9.33778980837691
H         -11.10884179242947    6.52266340098131    7.91421782408206
H         -12.58969062515187   12.09102698666172    6.97408354332635
H         -13.45155129657005   10.09317604424850    9.14191032120048
H         -14.66031540387610   12.62477368709755    7.90119650312774
H         -17.53908778732800    8.37954967994357   11.55733627995028
H         -19.84181183700393   12.49641408320377    9.94640584544824
H         -21.89753620205340   11.75136576032781   10.97670225801405
H         -23.15935726697014   10.08408931072438   12.27786526325575
H         -22.04739419523370    8.04226631104833   13.09139007685776
H         -19.66340771916899    7.65136068940116   12.60801348076706
