134
 SCF done       -239.746444026591          0.000922431911
C          -1.05592355510432   -0.20452704640045    1.99947651722467
N          -2.25865194193198   -0.70113055516705    2.35620014882142
C          -2.58716876984183   -2.09223672607917    2.54497341999493
C          -2.83426195786827   -2.79091207318317    1.21026690385757
C          -3.23821619779688    0.32829134375149    2.44157543225231
O          -4.40207787197061    0.11466769291092    2.69860157258916
C          -2.49986060678284    1.53151732009996    2.13536143434600
C          -1.15896046265199    1.16039335484716    1.85218195565146
C          -0.42362057179721    2.36371199097854    1.49748427551539
O           0.72812459120267    2.55042274875525    1.18667231906823
N          -1.38679406818870    3.38834376746118    1.59015875496544
C          -1.05372539166758    4.75632903841330    1.27078784338903
C          -1.50789355109731    5.13698732509897   -0.13652728202275
C          -2.61867142519231    2.91851834828482    1.97973024189607
C          -3.74970680497636    3.73300329263901    2.16481972496598
C          -4.90832676439115    3.27909812569012    2.74164791618933
C          -6.07264715831077    4.05078433935453    2.87741428050833
C          -7.05056611662204    3.94074726070777    3.87914193157449
N          -7.07274560512686    3.03265863338226    4.95149929140605
O          -8.07939887423241    3.00917703724080    5.63969939694976
O          -6.09604302202746    2.32765937736848    5.14202114977841
C          -8.00236012955999    4.97756471815852    3.71763775147961
C          -7.63300261309941    5.75058401183649    2.64169953302955
C          -6.46307691542953    5.20631044118223    2.06178307342735
C          -5.91423483325423    5.55924392125274    0.81977412303972
C          -5.42133475026365    4.65098953930486   -0.14345335849646
C          -5.21905914272465    5.31811385626222   -1.33622104734664
C          -5.53412548673786    6.67769212620683   -1.15787787339862
N          -5.39249470031205    7.63616657813019   -2.16757347078677
O          -4.99394845931177    7.25274972653970   -3.25516043924559
O          -5.68003236932861    8.80212722994964   -1.92309560012812
C          -5.94135139513766    6.88247396760729    0.19096949840914
C          -6.13648291644977    8.11609369861570    0.79948460730545
C          -6.13213541202192    8.32352879780144    2.16976310513148
C          -6.36990464586509    9.48760642891911    2.88541531903036
N          -6.76425533775355   10.74557151852794    2.50693884880747
C          -7.09686475586691   11.22250822061432    1.18206376343186
C          -8.44152765717741   10.68387933396555    0.70356117229662
C          -6.91013791000263   11.61019875055960    3.61644696499395
O          -7.28922237122581   12.75098764084325    3.53103041230437
C          -6.53043457057990   10.79133514801647    4.76490171922634
C          -6.23526477627299    9.52741938132279    4.30337503464398
C          -5.89572404360258    8.68820450536517    5.44075955721073
O          -5.57041096935040    7.52356292288879    5.50318685345960
N          -6.03058754245670    9.53702731561892    6.55259116711587
C          -5.64889401438294    9.03963408032987    7.85577275746709
C          -4.27305137630401    9.55220100760106    8.27109666460748
C          -6.39186273886428   10.82028390050094    6.18595004023429
C          -6.58642366144174   11.97690233388584    6.92187704863743
C          -6.60550931300635   12.13526592527815    8.30542555112637
C          -6.77356994377649   13.31151638932551    9.01605326794140
C          -6.98103374322570   14.66852703521160    8.61032463875492
N          -6.70203854982048   15.30276772766569    7.38674516974390
O          -5.97905940259326   14.74021812037341    6.57931393214078
O          -7.16688011777335   16.41761224972702    7.22127774104792
C          -7.43099445877923   15.40153491221619    9.71243780485017
C          -7.50464085337592   14.56791593362184   10.82161957405944
C          -7.06477978469048   13.28963824769877   10.45955266853202
C          -6.86932185402660   12.20311833069318   11.33497392833515
C          -5.82776988219363   11.26242264813017   11.28628593989731
C          -5.88550127004801   10.47886466964560   12.42167819180812
C          -6.98140935178544   10.88328656783239   13.21558264294182
N          -7.24787403870742   10.23357474169096   14.42795650612650
O          -8.03615235827046   10.72776443994947   15.22444846879575
O          -6.64879292433836    9.19313081496714   14.64546148418016
C          -7.64817193037172   11.94941807918365   12.55522292887310
C          -8.88469428025071   12.57686344334528   12.73034720509467
C          -9.72996244943378   12.53374354815858   13.81805224555579
C         -10.93545019477077   13.24350523434551   13.83440981382836
N         -11.77994477434106   13.28555017616669   14.91707764753481
C         -11.56379861101322   12.64092777877914   16.19306621414665
C         -10.57119119825997   13.41144651715517   17.05845383089965
C         -12.90232040102653   14.09268583576843   14.69041878986196
O         -13.78051824400639   14.27595755058221   15.50560124090491
C         -12.72682089321220   14.57792025010860   13.33053917329405
C         -11.52584066725484   14.04075670563122   12.82911947217603
C         -11.36110967217121   14.51423897474005   11.47341474174948
O         -10.50202941872202   14.32293471788068   10.63427391491784
N         -12.48621839475647   15.33668107826261   11.25130480540090
C         -12.70130045794262   15.96306878727317    9.96830074379523
C         -13.71313790285251   15.19168378825170    9.12478743748149
C         -13.30947271610481   15.37900244867946   12.34098214051422
C         -14.51712057125416   16.14410301182161   12.39685584057938
C         -15.31853073929318   16.16055921377061   13.46750022950603
H          -0.20009062497835   -0.84265164714692    1.87662024127189
H          -3.49560667358763   -2.12048302135727    3.15221447912830
H          -1.77316922067970   -2.57947399022307    3.08787534146069
H          -3.66024185334488   -2.31534366054352    0.68735285926572
H          -3.08637261678737   -3.83321915831052    1.38212909950546
H          -1.94803172826074   -2.74393802575975    0.58105144216110
H           0.03577909682782    4.82499484827117    1.33355831681861
H          -1.49287290248948    5.42245983733698    2.01830147869379
H          -1.02323020677960    4.49583140387575   -0.86832415187085
H          -1.23334822455591    6.16711694636664   -0.34490711742292
H          -2.58554432826642    5.03359563991412   -0.24581737506068
H          -3.67497257974677    4.77329976732628    1.88328592073547
H          -4.92581363811458    2.29014666580896    3.18646608544055
H          -8.85703783727879    5.11359565201968    4.35267537187226
H          -8.18900872166734    6.57579450322831    2.23940351222234
H          -5.32743778540906    3.59238021756877    0.00564453645812
H          -4.88541923085050    4.89316254852050   -2.26423781096821
H          -6.20951205547057    8.95702900442770    0.12551560630024
H          -5.88018494091644    7.48485991021970    2.80680629843765
H          -6.29719234837597   10.96816129251696    0.48344826260667
H          -7.14972121886377   12.31181339304596    1.26470055521186
H          -8.44745142263336    9.59672882097782    0.68289097987231
H          -8.63981467692560   11.04872964053804   -0.29968034573289
H          -9.23625416193638   11.02448683345235    1.36281545397044
H          -5.61578827300044    7.95045665584358    7.75603079674100
H          -6.41443825225701    9.28920471962519    8.59360517567476
H          -3.52002729520484    9.19305502365131    7.57381978882461
H          -4.02810620925420    9.18315171591927    9.26305424803605
H          -4.24327815802871   10.63978215421920    8.27501874421192
H          -6.73786070235274   12.85014876767257    6.30133407645171
H          -6.55332163563008   11.24939671845519    8.91962200526133
H          -7.65096156524584   16.45239598547796    9.68611875688435
H          -7.75040316753260   14.88542614968322   11.81648284803909
H          -5.04314765399957   11.23590246520462   10.55538169055089
H          -5.20765141885366    9.69325159482750   12.69876738053624
H          -9.20401720972375   13.17468206463319   11.88688797571341
H          -9.45175173760862   11.96810055135476   14.69317423095750
H         -11.21538433170076   11.61868205239580   16.02926931921541
H         -12.53915533357380   12.61200351790464   16.68621834627429
H          -9.59105183003818   13.44560459405701   16.58963043588753
H         -10.47473220407782   12.92043562566055   18.02217250154319
H         -10.92217645393692   14.42829783025005   17.21856734553041
H         -11.73039188336720   15.96381831440925    9.46499062956388
H         -13.02278602465504   16.99734919455600   10.11530139291882
H         -13.35817537993097   14.17851657781083    8.95272158297597
H         -13.83743202713588   15.68267695928769    8.16389908225646
H         -14.67983343805887   15.14066835143167    9.62100515622304
H         -14.76441967257138   16.72958618598961   11.52224473107278
H         -15.09564437806097   15.58617731916092   14.35161505732136
H         -16.21627088314046   16.75400988570298   13.47877728241496
