108
 SCF done       -196.328407089638          0.000918249309
C           6.27561388318823    4.58671919371086    2.55196399508758
N           5.77994743572906    5.68201872270209    3.18821483432706
C           6.49377079204341    6.50616502067614    4.13091283356712
C           7.52825336968933    7.38838594957194    3.43687640666524
C           4.46365910627773    5.97081202668872    2.76603900064317
O           3.81176357272004    6.90209039839649    3.20207088027592
C           4.17250834743769    4.94108080607768    1.79999016073956
C           5.32667397712894    4.09989582235317    1.69806050200027
C           5.03841187512030    3.06296825974587    0.72541945598378
O           5.69247357838241    2.13608202330343    0.30372130667882
N           3.72780692769930    3.35281058456692    0.29741588412780
C           3.04338872687996    2.50136452981759   -0.64616137244978
C           2.07056286386938    1.55220791977152    0.04843566096457
C           3.20479432650439    4.45820331508665    0.92930308666066
C           1.90375156440622    4.95986806598161    0.66050160207278
C           1.38888990787729    6.03420146324185    1.30984621189578
C           0.09763486680794    6.56298590635499    1.05730821453332
S          -0.43767200979000    7.94913040004058    1.98451262289176
C          -0.90305288175952    6.19977164536641    0.17450266251499
C          -1.12841879516885    5.17130696228158   -0.85054897744809
O          -0.41772047456603    4.27279928856301   -1.24079428077699
N          -2.39921017916264    5.42665406361465   -1.34474300489698
C          -3.02900070974650    4.61137694540263   -2.36118341723356
C          -3.80853411745954    3.45763652330407   -1.73970758949410
C          -3.02585728110131    6.51029747482740   -0.74590895468831
O          -4.13473559991470    6.89884533989972   -1.03919479038196
C          -2.06050014783172    7.01360827922917    0.23836058352955
C          -1.98907738908444    8.02705294281628    1.17754551367834
C          -2.91184907809530    9.03449122304175    1.55574769596437
C          -4.12139066438568    9.21155042696092    0.97074218314787
C          -5.05494245814501   10.20703999074055    1.34755423131670
S          -4.78278123032852   11.29333498117249    2.67315406148992
C          -6.31770451880615   12.07555856474035    2.41943520270868
C          -7.00895497286119   11.49366645025647    1.35978956439276
C          -6.28872512206488   10.45180412866263    0.75267129252698
C          -6.79497003262362    9.67571015999285   -0.42367431447028
C          -7.97173064043136   10.37799807000462   -1.09164372762245
S          -7.40633773940481   11.75420234193938   -2.16044683712752
C          -8.99435778844176   10.86273553816980   -0.05274529958460
O          -9.54034541461754    9.77049498718057    0.64500339807968
C          -8.37451829185887   11.89690375293937    0.89699364297020
C          -6.62151533025655   13.15057230716102    3.29808375946225
C          -7.67214769284827   13.99549829310468    3.22976380175943
C          -7.95643988385039   15.01567512409402    4.20151967727463
C          -7.02103751665784   15.82029917988489    4.88820427381580
C          -5.60222556743772   15.93517893612144    4.50242252312347
O          -5.03442663433314   15.44734967897515    3.57000047589880
S          -4.77192860641634   17.05312463806723    5.63570239066528
C          -6.27560721152100   17.40250973122822    6.54709536507043
O          -6.28330091708844   18.11156216841288    7.51049318558547
C          -7.40186610265531   16.68775623575928    5.91807880968616
C          -8.74140153178548   16.86457853073783    6.33160393480555
C          -9.67723932300511   16.16509942242589    5.54989440634443
C          -9.29299279491901   15.28994342011541    4.53704641415777
C         -10.52195512853248   14.74662308173030    3.92599154221673
O         -10.65924993547666   13.94000751136579    3.05452634309309
O         -11.58356294322576   15.35259755350962    4.54619370296294
C         -11.15805388153422   16.22394781603091    5.52545025066952
O         -11.93009140749738   16.87694277890052    6.15759332047831
C          -9.09168739133669   17.72497365690942    7.43199235780928
C         -10.09321487676267   17.50066269765831    8.29858255580762
C         -10.37126997401639   18.39371501583226    9.39423592995470
N          -9.58945114756668   19.55880199254089    9.49432514350083
C          -9.88863671138054   20.33044262272694   10.41989624558375
C          -9.31424261711603   21.59998000402426   10.87381191850355
C          -9.68707963790439   21.73022701048044   12.37437844807256
N         -11.02954625384757   21.28077334368123   12.57590334864228
S         -11.34596791479414   19.78009746008433   11.48482776330509
C         -11.27470427485317   18.24621786784544   10.37690624330777
H           7.26688843314607    4.22812154020729    2.75911837791811
H           6.97699548903365    5.86585713853471    4.87520942661695
H           5.74319882649747    7.12867965453035    4.62567830156493
H           8.27110291266955    6.78073431322481    2.92456097907449
H           8.03257756080952    8.01194632788677    4.16961061758991
H           7.04187526084786    8.03135638975554    2.70737438471822
H           3.82350829686969    1.92507261101930   -1.15141446080817
H           2.51763775586005    3.11376525034531   -1.38290114224197
H           2.60008141835967    0.93697035268925    0.77220514162401
H           1.60559144727797    0.90371052869785   -0.68840266497695
H           1.28998058964912    2.10728520500749    0.56314935059610
H           1.31613040901240    4.46028722093508   -0.09498738168137
H           1.97243059475810    6.53871285848515    2.06923185676128
H          -2.23737730288424    4.22964688630185   -3.01023281440981
H          -3.69815542672404    5.25967563082183   -2.93169174804935
H          -3.14211860884901    2.82299805770453   -1.16003353445369
H          -4.26742756806385    2.86028369425141   -2.52226928466593
H          -4.59009037655525    3.84023159385982   -1.08726659870696
H          -2.60081121309395    9.68867613992925    2.36028697160501
H          -4.41736321396184    8.55596878575889    0.16422698296893
H          -7.10983132706292    8.67718280959998   -0.10051906695614
H          -5.99603743016486    9.52894956522406   -1.15371148331565
H          -8.46754593748636    9.69446795687456   -1.78470715785389
H          -6.56552897649922   12.28931658311581   -1.27690975999720
H          -9.84379782954287   11.31909432443620   -0.57131042523517
H          -8.87088126728007    9.41705679206389    1.24208883066868
H          -9.05047818282549   12.00941582936012    1.74848389990754
H          -8.32219071620822   12.86195299119858    0.38580297780761
H          -5.91141016088881   13.26538701153155    4.10652427897822
H          -8.43281980892089   13.87136424689092    2.47792015585792
H          -8.45229360422168   18.57893541902062    7.60734351632520
H         -10.71919420859181   16.62356052668372    8.23911503485876
H          -9.77107187978339   22.41645931230808   10.30540055419975
H          -8.23743529036119   21.62545701290012   10.71492374357850
H          -9.53886584414351   22.75519318092680   12.72011777618220
H          -9.02586573156473   21.07284162887422   12.95309232742845
H         -11.71129587572896   21.99471605402049   12.35327167020687
H         -10.66080527120825   19.09319645593851   12.40905429267668
H         -11.98261031774079   17.44455355084729   10.45209181673069
