107
 SCF done       -190.381282436227          0.000776829421
C          -1.98914613074447   -1.73098005473295    1.72158366706646
N          -3.04749839055598   -1.01157152455748    2.17572181247806
C          -4.40134199584590   -1.48978248574595    2.30617718596918
C          -4.56625082747412   -2.36643854552509    3.54478762345067
C          -2.65105775419746    0.27769265078790    2.59392556089212
O          -3.43235585283346    1.10997464431944    3.02203554538345
C          -1.22878078226437    0.30118540190680    2.35985655669313
C          -0.85907389411944   -0.96333466110138    1.80921928075154
C           0.57202516263960   -0.94374929113647    1.56311862878061
O           1.33024532296826   -1.77102735621259    1.11350900592978
N           0.97399143310740    0.33626784670858    1.99532345133229
C           2.34722124295013    0.76844786190108    1.87393242644052
C           2.54257544097697    1.76496190860279    0.73438442148809
C          -0.07758308636208    1.08188142560037    2.46830369025577
C           0.06946708366740    2.39176806738618    2.98709808959553
C          -0.99703475749410    3.09241247061059    3.45851695030224
C          -0.99951156486564    4.40129027811351    4.00403448950545
C          -0.25482884704629    5.54731615486182    3.71845323441472
N           0.79081912128349    5.74639985370010    2.80553884282187
O           1.10961100311968    6.90123023547916    2.56901698793001
O           1.33142830838275    4.78202090867531    2.28119667476924
C          -0.81485633515231    6.66373873477511    4.43359693459604
C          -1.90055090846498    6.24689680095951    5.12972322801347
C          -2.06609943146413    4.83441228119580    4.91880687906457
C          -2.94230655327199    3.99821730438947    5.58381951675961
C          -2.72410070705616    2.62923733513636    5.92697017244197
C          -3.67487707844040    2.24338359080711    6.82204934699753
C          -4.58803591125029    3.33003262867772    7.03284738262899
N          -5.72655345983022    3.22075681440112    7.84100800294608
O          -5.90755239568555    2.16027772503185    8.41797809008018
O          -6.47718158830431    4.18239715935357    7.93497624662558
C          -4.18755076450176    4.41669644292165    6.26296844066360
C          -4.89199000368111    5.62259473103675    6.05208529815943
C          -4.83666447197550    6.35488598769436    4.90758513604862
C          -5.48267683134048    7.62315622392737    4.72097647761340
C          -5.84250300975657    8.08446804976151    3.42405701728984
N          -5.66095867688580    7.32543156652929    2.31948688712764
C          -6.41745845539248    9.35844963779762    3.29673131621993
C          -6.63644386591832   10.15588930805667    4.38892046643378
C          -6.27850980217655    9.72394526032562    5.68082062383694
C          -5.72070738528290    8.45756965894403    5.81343466645525
C          -6.43598074007524   10.58086727582119    6.82956580480365
C          -5.78332464239463   10.47006299640985    8.03370644179300
C          -6.18708306122770   11.53003476055440    8.89435324486279
C          -7.17676329079026   12.31160412326318    8.13453041424793
C          -7.30498235758946   11.74182114689448    6.90472557748403
C          -7.87166628058561   13.44210376466446    8.57135724148177
N          -8.45865643347251   14.37570301204480    8.89626205124588
C          -5.72965435826478   11.79723699828367   10.16562974954256
C          -6.10840130219206   12.85696191122411   11.02805171117055
C          -5.39618807531618   12.76929304596515   12.20911959639798
C          -4.52429345978298   11.60518255719672   12.11218062654029
C          -4.71114544494612   11.01881035824592   10.90229261619749
C          -4.02456057528679    9.88698390586365   10.45059742184293
N          -3.42863577964837    8.96640529492568   10.10597223491309
C          -5.48368688613888   13.66408396448010   13.29942489524130
C          -4.73072540592200   13.58138033390564   14.43066960532073
C          -4.80919430682877   14.47283261842625   15.51945791700272
S          -6.08109023898136   15.65533195733286   15.63142311009046
C          -5.58848097740509   16.16106752759983   17.17578073346092
C          -4.47434229581275   15.47787222319858   17.62705836190037
C          -3.99989076523763   14.52370194038610   16.66682530006271
C          -2.83123046131320   13.78657479079745   16.96852532298763
C          -2.16772178183789   12.89386709191804   15.97161276153031
O          -2.05028766211327   11.70124363586518   16.07539556019058
O          -1.67040865407225   13.62507683769521   14.96510095888363
C          -0.98527075704731   12.94169860323051   13.92196691986081
C          -2.24096318280984   13.93473856967512   18.19913464038532
C          -2.73988243536530   14.84416042792713   19.15174133893028
C          -3.82235739809654   15.62472349500945   18.87203926199002
H          -2.11406504906599   -2.73540946725532    1.36177391127146
H          -4.67221798760879   -2.04636208713557    1.40446521385573
H          -5.03834349271727   -0.60523584886588    2.38918816644396
H          -3.91481484123220   -3.23587725931602    3.48960754868113
H          -5.59534695848552   -2.70492853225248    3.62323709722533
H          -4.31752999183983   -1.79997739019329    4.43883545387163
H           2.92421477167226   -0.13947107201559    1.67557687010754
H           2.68161384782058    1.19856933816934    2.82226621484654
H           2.16780924988113    1.34494591377812   -0.19608358501738
H           3.60202601993694    1.97475326657822    0.61729083350429
H           2.02724150743556    2.70120041795583    0.93306753664393
H           1.05965853204925    2.81372279637320    3.01937049286171
H          -1.96473143433793    2.60533791854053    3.45425126593527
H          -0.39861944038278    7.65230480154829    4.39812271060703
H          -2.48048163348686    6.83457743305172    5.81323854302751
H          -1.87437435598908    2.04973610254483    5.62482084869942
H          -3.76243002362671    1.29373161824373    7.31529716202718
H          -5.59750427957980    5.89542735960293    6.82603538296699
H          -4.27695214254570    5.95417009117915    4.07142337858035
H          -5.35786063444003    6.37133631164033    2.38683181759139
H          -5.99189585104988    7.65796978591557    1.43151259749776
H          -6.68820396789178    9.70564708716799    2.30984714030248
H          -7.06621377062006   11.13557167016340    4.25063694812329
H          -5.43907071103721    8.10979436862777    6.79400479664996
H          -5.05273830256079    9.73225176396771    8.29637293877667
H          -7.96658028056452   12.07796643460532    6.12790829524608
H          -6.83551022417071   13.60900893910368   10.79214321961089
H          -3.85067541257222   11.26211875225866   12.87569541045196
H          -6.19228473417930   14.47692622970964   13.19719483543241
H          -4.02817298392983   12.76879633743233   14.53542660322276
H          -6.13697247130901   16.92479527032799   17.69069073473651
H          -1.57191448886146   13.02665526280258   13.00566344086351
H          -0.85176397975152   11.89095900208986   14.18750881436183
H          -0.01759949238953   13.42234918112290   13.78631217502845
H          -1.35949552400615   13.35685352031093   18.43254115645174
H          -2.23638847074411   14.92954615730800   20.10231504561946
H          -4.19600458918631   16.34861032384621   19.57981130655637
